piperidine-amides-35192-covalent
     RDKit          3D

 27 29  0  0  0  0  0  0  0  0999 V2000
    6.9510   -3.3790   19.4410 C   0  0  0  0  0  0  0  0  0  0  0  0
    6.3430   -4.2930   20.4520 C   0  0  0  0  0  0  0  0  0  0  0  0
    5.4420   -5.0170   20.0190 O   0  0  0  0  0  0  0  0  0  0  0  0
    6.7910   -4.3380   21.7960 N   0  0  0  0  0  0  0  0  0  0  0  0
    7.6400   -3.3130   22.3870 C   0  0  0  0  0  0  0  0  0  0  0  0
    7.1320   -2.9050   23.7560 C   0  0  0  0  0  0  0  0  0  0  0  0
    5.8260   -3.6500   24.0440 C   0  0  0  0  0  0  0  0  0  0  0  0
    5.1360   -3.0740   25.2650 C   0  0  0  0  0  0  0  0  0  0  0  0
    4.5440   -2.0080   25.1080 O   0  0  0  0  0  0  0  0  0  0  0  0
    5.0900   -3.6390   26.5760 N   0  0  0  0  0  0  0  0  0  0  0  0
    4.7390   -2.8040   27.6940 C   0  0  0  0  0  0  0  0  0  0  0  0
    4.1470   -3.7030   28.7730 C   0  0  0  0  0  0  0  0  0  0  0  0
    5.2250   -4.4910   29.3570 N   0  0  0  0  0  0  0  0  0  0  0  0
    4.6330   -6.0630   29.7410 S   0  0  0  0  0  0  0  0  0  0  0  0
    5.8250   -6.8510   30.1700 O   0  0  0  0  0  0  0  0  0  0  0  0
    3.7160   -5.9310   30.9230 O   0  0  0  0  0  0  0  0  0  0  0  0
    3.7790   -6.7700   28.2720 C   0  0  0  0  0  0  0  0  0  0  0  0
    4.5880   -6.6650   27.2080 C   0  0  0  0  0  0  0  0  0  0  0  0
    4.1010   -7.1250   26.0880 C   0  0  0  0  0  0  0  0  0  0  0  0
    2.7950   -7.7440   25.8310 C   0  0  0  0  0  0  0  0  0  0  0  0
    1.9450   -7.8270   27.0820 C   0  0  0  0  0  0  0  0  0  0  0  0
    0.2140   -8.6200   26.8640 Br  0  0  0  0  0  0  0  0  0  0  0  0
    2.3700   -7.3240   28.5010 C   0  0  0  0  0  0  0  0  0  0  0  0
    6.3850   -4.5980   28.5230 C   0  0  0  0  0  0  0  0  0  0  0  0
    6.2300   -4.2620   27.0780 C   0  0  0  0  0  0  0  0  0  0  0  0
    5.9340   -5.1210   23.8950 C   0  0  0  0  0  0  0  0  0  0  0  0
    6.5750   -5.5370   22.6010 C   0  0  0  0  0  0  0  0  0  0  0  0
  1  2  1  0
  2  3  2  0
  2  4  1  0
  4  5  1  0
  5  6  1  0
  6  7  1  0
  7  8  1  0
  8  9  2  0
  8 10  1  0
 10 11  1  0
 11 12  1  0
 12 13  1  0
 13 14  1  0
 14 15  2  0
 14 16  2  0
 14 17  1  0
 17 18  2  0
 18 19  1  0
 19 20  2  0
 20 21  1  0
 21 22  1  0
 17 23  1  0
 21 23  2  0
 13 24  1  0
 10 25  1  0
 24 25  1  0
  7 26  1  0
  4 27  1  0
 26 27  1  0
M  END
