piperidine-amides-32601-covalent
     RDKit          3D

 28 30  0  0  0  0  0  0  0  0999 V2000
    7.0130   -3.3500   19.3600 C   0  0  0  0  0  0  0  0  0  0  0  0
    6.3540   -4.2340   20.3590 C   0  0  0  0  0  0  0  0  0  0  0  0
    5.3700   -4.9050   19.9960 O   0  0  0  0  0  0  0  0  0  0  0  0
    6.8780   -4.3240   21.6750 N   0  0  0  0  0  0  0  0  0  0  0  0
    6.7570   -5.5640   22.4240 C   0  0  0  0  0  0  0  0  0  0  0  0
    6.1650   -5.2550   23.8110 C   0  0  0  0  0  0  0  0  0  0  0  0
    6.1910   -3.7800   23.9850 C   0  0  0  0  0  0  0  0  0  0  0  0
    5.5260   -3.2680   25.2160 C   0  0  0  0  0  0  0  0  0  0  0  0
    4.8160   -2.2800   25.0500 O   0  0  0  0  0  0  0  0  0  0  0  0
    5.6550   -3.8630   26.4790 N   0  0  0  0  0  0  0  0  0  0  0  0
    4.6040   -4.5750   27.1350 C   0  0  0  0  0  0  0  0  0  0  0  0
    4.4760   -4.7480   28.5120 C   0  0  0  0  0  0  0  0  0  0  0  0
    5.6120   -4.7050   29.3000 C   0  0  0  0  0  0  0  0  0  0  0  0
    5.8630   -5.8440   30.0570 O   0  0  0  0  0  0  0  0  0  0  0  0
    5.0730   -6.3900   31.0840 C   0  0  0  0  0  0  0  0  0  0  0  0
    5.5530   -7.6120   31.8050 C   0  0  0  0  0  0  0  0  0  0  0  0
    4.7680   -8.3020   32.9610 C   0  0  0  0  0  0  0  0  0  0  0  0
    3.4520   -7.5740   33.2560 C   0  0  0  0  0  0  0  0  0  0  0  0
    3.0560   -6.4610   32.5690 C   0  0  0  0  0  0  0  0  0  0  0  0
    3.8560   -5.8700   31.4910 C   0  0  0  0  0  0  0  0  0  0  0  0
    2.9600   -4.6930   31.0990 C   0  0  0  0  0  0  0  0  0  0  0  0
    3.5880   -3.5240   30.7880 F   0  0  0  0  0  0  0  0  0  0  0  0
    2.0610   -4.3000   32.0610 F   0  0  0  0  0  0  0  0  0  0  0  0
    2.2050   -5.0710   30.0100 F   0  0  0  0  0  0  0  0  0  0  0  0
    6.6410   -4.2950   28.5150 C   0  0  0  0  0  0  0  0  0  0  0  0
    6.3830   -3.1750   27.4990 C   0  0  0  0  0  0  0  0  0  0  0  0
    7.5320   -3.1900   23.7350 C   0  0  0  0  0  0  0  0  0  0  0  0
    7.6980   -3.2390   22.2170 C   0  0  0  0  0  0  0  0  0  0  0  0
  1  2  1  0
  2  3  2  0
  2  4  1  0
  4  5  1  0
  5  6  1  0
  6  7  1  0
  7  8  1  0
  8  9  2  0
  8 10  1  0
 10 11  1  0
 11 12  1  0
 12 13  1  0
 13 14  1  0
 14 15  1  0
 15 16  2  0
 16 17  1  0
 17 18  2  0
 18 19  1  0
 15 20  1  0
 19 20  2  0
 20 21  1  0
 21 22  1  0
 21 23  1  0
 21 24  1  0
 13 25  1  0
 10 26  1  0
 25 26  1  0
  7 27  1  0
  4 28  1  0
 27 28  1  0
M  END
