piperidine-amides-4619-covalent
     RDKit          3D

 24 26  0  0  0  0  0  0  0  0999 V2000
    7.1090   -3.2730   19.2120 C   0  0  0  0  0  0  0  0  0  0  0  0
    6.3750   -4.0440   20.2440 C   0  0  0  0  0  0  0  0  0  0  0  0
    5.3040   -4.5750   19.8920 O   0  0  0  0  0  0  0  0  0  0  0  0
    6.8980   -4.1930   21.5360 N   0  0  0  0  0  0  0  0  0  0  0  0
    6.5140   -5.2920   22.3520 C   0  0  0  0  0  0  0  0  0  0  0  0
    6.0560   -4.9160   23.6990 C   0  0  0  0  0  0  0  0  0  0  0  0
    6.6270   -3.6640   24.2670 C   0  0  0  0  0  0  0  0  0  0  0  0
    5.7700   -3.1310   25.3600 C   0  0  0  0  0  0  0  0  0  0  0  0
    4.7010   -2.5910   25.0270 O   0  0  0  0  0  0  0  0  0  0  0  0
    6.1310   -3.2110   26.7220 N   0  0  0  0  0  0  0  0  0  0  0  0
    6.0300   -4.4700   27.5020 C   0  0  0  0  0  0  0  0  0  0  0  0
    4.7550   -4.6280   28.2610 C   0  0  2  0  0  0  0  0  0  0  0  0
    4.8820   -5.1570   29.6360 C   0  0  0  0  0  0  0  0  0  0  0  0
    4.1580   -6.2960   29.8550 C   0  0  0  0  0  0  0  0  0  0  0  0
    3.4310   -6.5580   28.7450 C   0  0  0  0  0  0  0  0  0  0  0  0
    3.7120   -5.5180   27.8070 N   0  0  0  0  0  0  0  0  0  0  0  0
    2.8440   -5.1120   26.8520 C   0  0  0  0  0  0  0  0  0  0  0  0
    1.9590   -4.1880   27.3090 C   0  0  0  0  0  0  0  0  0  0  0  0
    0.9940   -3.6510   26.5100 C   0  0  0  0  0  0  0  0  0  0  0  0
    0.9180   -4.0700   25.1780 C   0  0  0  0  0  0  0  0  0  0  0  0
    1.8420   -5.0720   24.5850 C   0  0  0  0  0  0  0  0  0  0  0  0
    2.8660   -5.5920   25.5730 C   0  0  0  0  0  0  0  0  0  0  0  0
    6.8770   -2.6220   23.1800 C   0  0  0  0  0  0  0  0  0  0  0  0
    7.6780   -3.1440   22.1560 C   0  0  0  0  0  0  0  0  0  0  0  0
  1  2  1  0
  2  3  2  0
  2  4  1  0
  4  5  1  0
  5  6  1  0
  6  7  1  0
  7  8  1  0
  8  9  2  0
  8 10  1  0
 10 11  1  0
 12 11  1  6
 12 13  1  0
 13 14  1  0
 14 15  1  0
 12 16  1  0
 15 16  1  0
 16 17  1  0
 17 18  2  0
 18 19  1  0
 19 20  2  0
 20 21  1  0
 17 22  1  0
 21 22  2  0
  7 23  1  0
  4 24  1  0
 23 24  1  0
M  END
