piperidine-amides-28814-covalent
     RDKit          3D

 26 28  0  0  0  0  0  0  0  0999 V2000
    7.0100   -3.3530   19.3990 C   0  0  0  0  0  0  0  0  0  0  0  0
    6.3730   -4.2220   20.3890 C   0  0  0  0  0  0  0  0  0  0  0  0
    5.4190   -4.9240   20.0020 O   0  0  0  0  0  0  0  0  0  0  0  0
    6.8500   -4.2850   21.7350 N   0  0  0  0  0  0  0  0  0  0  0  0
    6.6720   -5.5310   22.4430 C   0  0  0  0  0  0  0  0  0  0  0  0
    6.3070   -5.3070   23.8980 C   0  0  0  0  0  0  0  0  0  0  0  0
    6.1950   -3.8170   24.1160 C   0  0  0  0  0  0  0  0  0  0  0  0
    5.6640   -3.4180   25.4850 C   0  0  0  0  0  0  0  0  0  0  0  0
    4.6830   -2.6800   25.4320 O   0  0  0  0  0  0  0  0  0  0  0  0
    6.2220   -3.8540   26.7020 N   0  0  0  0  0  0  0  0  0  0  0  0
    6.1870   -3.0150   27.8380 C   0  0  0  0  0  0  0  0  0  0  0  0
    5.3900   -3.4610   28.8990 C   0  0  0  0  0  0  0  0  0  0  0  0
    5.3970   -4.7800   29.3190 C   0  0  0  0  0  0  0  0  0  0  0  0
    4.4710   -5.1100   30.3070 C   0  0  0  0  0  0  0  0  0  0  0  0
    3.3960   -4.2350   30.2490 O   0  0  0  0  0  0  0  0  0  0  0  0
    4.5580   -6.1580   31.2460 N   0  0  0  0  0  0  0  0  0  0  0  0
    4.3200   -7.5040   30.7560 C   0  0  0  0  0  0  0  0  0  0  0  0
    2.8120   -7.8180   30.9110 C   0  0  0  0  0  0  0  0  0  0  0  0
    2.4570   -7.6690   32.1810 N   0  0  0  0  0  0  0  0  0  0  0  0
    2.4610   -8.8240   33.0040 C   0  0  0  0  0  0  0  0  0  0  0  0
    2.5970   -6.3130   32.6650 C   0  0  0  0  0  0  0  0  0  0  0  0
    4.1340   -6.1150   32.6210 C   0  0  0  0  0  0  0  0  0  0  0  0
    5.0230   -5.2580   27.9360 C   0  0  0  0  0  0  0  0  0  0  0  0
    6.0370   -5.2180   27.0670 C   0  0  0  0  0  0  0  0  0  0  0  0
    7.4600   -3.1190   23.7710 C   0  0  0  0  0  0  0  0  0  0  0  0
    7.6820   -3.2370   22.2880 C   0  0  0  0  0  0  0  0  0  0  0  0
  1  2  1  0
  2  3  2  0
  2  4  1  0
  4  5  1  0
  5  6  1  0
  6  7  1  0
  7  8  1  0
  8  9  2  0
  8 10  1  0
 10 11  1  0
 11 12  1  0
 12 13  1  0
 13 14  1  0
 14 15  2  0
 14 16  1  0
 16 17  1  0
 17 18  1  0
 18 19  1  0
 19 20  1  0
 19 21  1  0
 16 22  1  0
 21 22  1  0
 13 23  1  0
 10 24  1  0
 23 24  1  0
  7 25  1  0
  4 26  1  0
 25 26  1  0
M  END
