piperidine-amides-10104-covalent
     RDKit          3D

 26 28  0  0  0  0  0  0  0  0999 V2000
    7.0120   -3.3160   19.3460 C   0  0  0  0  0  0  0  0  0  0  0  0
    6.3480   -4.1370   20.3730 C   0  0  0  0  0  0  0  0  0  0  0  0
    5.3600   -4.8090   19.9700 O   0  0  0  0  0  0  0  0  0  0  0  0
    6.8110   -4.1970   21.7040 N   0  0  0  0  0  0  0  0  0  0  0  0
    6.7000   -5.4330   22.4560 C   0  0  0  0  0  0  0  0  0  0  0  0
    6.1040   -5.1390   23.8120 C   0  0  0  0  0  0  0  0  0  0  0  0
    5.9220   -3.6650   24.0370 C   0  0  0  0  0  0  0  0  0  0  0  0
    5.3370   -3.3510   25.3840 C   0  0  0  0  0  0  0  0  0  0  0  0
    4.1150   -3.1020   25.3920 O   0  0  0  0  0  0  0  0  0  0  0  0
    5.9990   -3.2970   26.6410 N   0  0  0  0  0  0  0  0  0  0  0  0
    6.2020   -4.4710   27.4800 C   0  0  0  0  0  0  0  0  0  0  0  0
    5.1850   -4.8620   28.5360 C   0  0  0  0  0  0  0  0  0  0  0  0
    3.8330   -4.6440   28.5690 C   0  0  0  0  0  0  0  0  0  0  0  0
    3.0560   -5.0830   29.6250 C   0  0  0  0  0  0  0  0  0  0  0  0
    3.6750   -5.7360   30.6330 N   0  0  0  0  0  0  0  0  0  0  0  0
    4.9900   -5.9370   30.5820 C   0  0  0  0  0  0  0  0  0  0  0  0
    5.6710   -6.5950   31.6050 O   0  0  0  0  0  0  0  0  0  0  0  0
    4.9730   -7.4430   32.4910 C   0  0  0  0  0  0  0  0  0  0  0  0
    3.7390   -8.0720   32.2450 C   0  0  0  0  0  0  0  0  0  0  0  0
    2.9360   -8.9920   33.1530 C   0  0  0  0  0  0  0  0  0  0  0  0
    3.5650   -9.2570   34.4990 C   0  0  0  0  0  0  0  0  0  0  0  0
    4.8700   -8.6070   34.7910 C   0  0  0  0  0  0  0  0  0  0  0  0
    5.6230   -7.6980   33.8520 C   0  0  0  0  0  0  0  0  0  0  0  0
    5.6950   -5.4790   29.5090 C   0  0  0  0  0  0  0  0  0  0  0  0
    7.2500   -2.9780   23.7610 C   0  0  0  0  0  0  0  0  0  0  0  0
    7.6540   -3.1590   22.2940 C   0  0  0  0  0  0  0  0  0  0  0  0
  1  2  1  0
  2  3  2  0
  2  4  1  0
  4  5  1  0
  5  6  1  0
  6  7  1  0
  7  8  1  0
  8  9  2  0
  8 10  1  0
 10 11  1  0
 11 12  1  0
 12 13  2  0
 13 14  1  0
 14 15  2  0
 15 16  1  0
 16 17  1  0
 17 18  1  0
 18 19  2  0
 19 20  1  0
 20 21  2  0
 21 22  1  0
 18 23  1  0
 22 23  2  0
 12 24  1  0
 16 24  2  0
  7 25  1  0
  4 26  1  0
 25 26  1  0
M  END
