piperidine-amides-34038-covalent
     RDKit          3D

 29 31  0  0  0  0  0  0  0  0999 V2000
    7.1060   -3.2560   19.2130 C   0  0  0  0  0  0  0  0  0  0  0  0
    6.3440   -4.0130   20.2200 C   0  0  0  0  0  0  0  0  0  0  0  0
    5.2910   -4.6030   19.8990 O   0  0  0  0  0  0  0  0  0  0  0  0
    6.8080   -4.1290   21.5330 N   0  0  0  0  0  0  0  0  0  0  0  0
    7.6920   -3.1060   22.0680 C   0  0  0  0  0  0  0  0  0  0  0  0
    7.4880   -3.0810   23.5820 C   0  0  0  0  0  0  0  0  0  0  0  0
    6.0750   -3.5610   23.8020 C   0  0  0  0  0  0  0  0  0  0  0  0
    5.5900   -3.2670   25.1660 C   0  0  0  0  0  0  0  0  0  0  0  0
    4.4060   -3.5630   25.4360 O   0  0  0  0  0  0  0  0  0  0  0  0
    6.4370   -2.6500   26.1260 N   0  0  0  0  0  0  0  0  0  0  0  0
    6.7100   -3.3230   27.3660 C   0  0  0  0  0  0  0  0  0  0  0  0
    5.8650   -4.5830   27.4520 C   0  0  0  0  0  0  0  0  0  0  0  0
    6.3790   -5.7010   26.8940 C   0  0  0  0  0  0  0  0  0  0  0  0
    7.7430   -5.5610   26.9950 N   0  0  0  0  0  0  0  0  0  0  0  0
    8.4350   -5.3200   28.1470 C   0  0  0  0  0  0  0  0  0  0  0  0
    9.7410   -5.2320   27.8090 C   0  0  0  0  0  0  0  0  0  0  0  0
    9.9230   -5.4180   26.4070 N   0  0  0  0  0  0  0  0  0  0  0  0
    8.5940   -5.6400   25.8530 C   0  0  0  0  0  0  0  0  0  0  0  0
    6.3850   -1.1850   26.1590 C   0  0  0  0  0  0  0  0  0  0  0  0
    4.9310   -0.7870   25.9630 C   0  0  0  0  0  0  0  0  0  0  0  0
    4.1160   -0.7650   27.2780 C   0  0  0  0  0  0  0  0  0  0  0  0
    4.4600   -1.0280   28.5510 F   0  0  0  0  0  0  0  0  0  0  0  0
    2.7640   -0.3550   26.7440 C   0  0  0  0  0  0  0  0  0  0  0  0
    2.3070   -0.0620   25.4540 C   0  0  0  0  0  0  0  0  0  0  0  0
    3.1460   -0.1290   24.4440 C   0  0  0  0  0  0  0  0  0  0  0  0
    4.5410   -0.5040   24.6490 C   0  0  0  0  0  0  0  0  0  0  0  0
    5.6090   -0.5720   23.2660 Cl  0  0  0  0  0  0  0  0  0  0  0  0
    5.9080   -5.0450   23.5530 C   0  0  0  0  0  0  0  0  0  0  0  0
    6.6090   -5.3750   22.2300 C   0  0  0  0  0  0  0  0  0  0  0  0
  1  2  1  0
  2  3  2  0
  2  4  1  0
  4  5  1  0
  5  6  1  0
  6  7  1  0
  7  8  1  0
  8  9  2  0
  8 10  1  0
 10 11  1  0
 11 12  1  0
 12 13  1  0
 13 14  1  0
 14 15  1  0
 15 16  2  0
 16 17  1  0
 14 18  1  0
 17 18  2  0
 10 19  1  0
 19 20  1  0
 20 21  2  0
 21 22  1  0
 21 23  1  0
 23 24  2  0
 24 25  1  0
 20 26  1  0
 25 26  2  0
 26 27  1  0
  7 28  1  0
  4 29  1  0
 28 29  1  0
M  END
