piperidine-amides-3897-covalent
     RDKit          3D

 19 20  0  0  0  0  0  0  0  0999 V2000
    7.0550   -3.3300   19.3060 C   0  0  0  0  0  0  0  0  0  0  0  0
    6.3740   -4.1420   20.3300 C   0  0  0  0  0  0  0  0  0  0  0  0
    5.3380   -4.7460   19.9530 O   0  0  0  0  0  0  0  0  0  0  0  0
    6.8700   -4.3030   21.6550 N   0  0  0  0  0  0  0  0  0  0  0  0
    7.6610   -3.2650   22.2370 C   0  0  0  0  0  0  0  0  0  0  0  0
    7.3170   -3.0020   23.6220 C   0  0  0  0  0  0  0  0  0  0  0  0
    6.0700   -3.6760   24.0190 C   0  0  0  0  0  0  0  0  0  0  0  0
    5.5470   -3.2950   25.3760 C   0  0  0  0  0  0  0  0  0  0  0  0
    4.3170   -3.3230   25.5590 O   0  0  0  0  0  0  0  0  0  0  0  0
    6.3740   -2.9120   26.4540 N   0  0  0  0  0  0  0  0  0  0  0  0
    6.6630   -1.6040   26.9280 C   0  0  2  0  0  0  0  0  0  0  0  0
    7.1370   -1.4240   28.3000 C   0  0  0  0  0  0  0  0  0  0  0  0
    6.3540   -0.2640   28.9110 C   0  0  0  0  0  0  0  0  0  0  0  0
    5.2010   -0.2480   28.1580 O   0  0  0  0  0  0  0  0  0  0  0  0
    5.5130   -0.6460   26.8530 C   0  0  1  0  0  0  0  0  0  0  0  0
    5.8500    0.6190   26.0620 C   0  0  0  0  0  0  0  0  0  0  0  0
    4.9300    1.6790   26.5770 C   0  0  0  0  0  0  0  0  0  0  0  0
    6.2170   -5.1910   23.8620 C   0  0  0  0  0  0  0  0  0  0  0  0
    6.6400   -5.5030   22.4340 C   0  0  0  0  0  0  0  0  0  0  0  0
  1  2  1  0
  2  3  2  0
  2  4  1  0
  4  5  1  0
  5  6  1  0
  6  7  1  0
  7  8  1  0
  8  9  2  0
  8 10  1  0
 11 10  1  1
 11 12  1  0
 12 13  1  0
 13 14  1  0
 11 15  1  0
 14 15  1  0
 15 16  1  6
 16 17  2  3
  7 18  1  0
  4 19  1  0
 18 19  1  0
M  END
