piperidine-amides-30011-covalent
     RDKit          3D

 27 28  0  0  0  0  0  0  0  0999 V2000
    7.0560   -3.3180   19.3110 C   0  0  0  0  0  0  0  0  0  0  0  0
    6.3610   -4.1220   20.3170 C   0  0  0  0  0  0  0  0  0  0  0  0
    5.3720   -4.7730   19.9730 O   0  0  0  0  0  0  0  0  0  0  0  0
    6.8380   -4.2060   21.6820 N   0  0  0  0  0  0  0  0  0  0  0  0
    7.7140   -3.1790   22.2220 C   0  0  0  0  0  0  0  0  0  0  0  0
    7.4510   -2.9260   23.6890 C   0  0  0  0  0  0  0  0  0  0  0  0
    6.1110   -3.5580   23.9900 C   0  0  0  0  0  0  0  0  0  0  0  0
    5.5380   -3.2540   25.3450 C   0  0  0  0  0  0  0  0  0  0  0  0
    4.3070   -3.2380   25.4850 O   0  0  0  0  0  0  0  0  0  0  0  0
    6.3290   -2.9450   26.4950 N   0  0  0  0  0  0  0  0  0  0  0  0
    6.6970   -1.5280   26.5860 C   0  0  0  0  0  0  0  0  0  0  0  0
    6.1980   -0.8990   27.8810 C   0  0  0  0  0  0  0  0  0  0  0  0
    4.9720   -0.8430   28.4430 N   0  0  0  0  0  0  0  0  0  0  0  0
    7.1160   -0.1910   28.6640 O   0  0  0  0  0  0  0  0  0  0  0  0
    5.9310   -3.5430   27.7610 C   0  0  2  0  0  0  0  0  0  0  0  0
    6.7860   -4.3450   28.5180 C   0  0  0  0  0  0  0  0  0  0  0  0
    4.8450   -4.6340   27.5530 C   0  0  0  0  0  0  0  0  0  0  0  0
    3.4450   -4.4670   27.1540 C   0  0  0  0  0  0  0  0  0  0  0  0
    2.4990   -5.4630   26.9880 C   0  0  0  0  0  0  0  0  0  0  0  0
    2.7990   -6.7940   27.1980 C   0  0  0  0  0  0  0  0  0  0  0  0
    1.9080   -7.8530   27.0570 C   0  0  0  0  0  0  0  0  0  0  0  0
    1.3500   -8.4470   28.2790 C   0  0  0  0  0  0  0  0  0  0  0  0
    2.0090   -8.1850   29.4660 C   0  0  0  0  0  0  0  0  0  0  0  0
    4.1720   -7.1210   27.6050 C   0  0  0  0  0  0  0  0  0  0  0  0
    5.1560   -6.0310   27.7690 C   0  0  0  0  0  0  0  0  0  0  0  0
    6.0910   -5.0390   23.7910 C   0  0  0  0  0  0  0  0  0  0  0  0
    6.6260   -5.4220   22.4230 C   0  0  0  0  0  0  0  0  0  0  0  0
  1  2  1  0
  2  3  2  0
  2  4  1  0
  4  5  1  0
  5  6  1  0
  6  7  1  0
  7  8  1  0
  8  9  2  0
  8 10  1  0
 10 11  1  0
 11 12  1  0
 12 13  1  0
 12 14  2  0
 10 15  1  0
 15 16  1  6
 15 17  1  0
 17 18  2  0
 18 19  1  0
 19 20  2  0
 20 21  1  0
 21 22  1  0
 22 23  1  0
 20 24  1  0
 17 25  1  0
 24 25  2  0
  7 26  1  0
  4 27  1  0
 26 27  1  0
M  END
