piperidine-amides-29888-covalent
     RDKit          3D

 25 27  0  0  0  0  0  0  0  0999 V2000
    7.1010   -3.3000   19.2290 C   0  0  0  0  0  0  0  0  0  0  0  0
    6.3710   -4.0610   20.2340 C   0  0  0  0  0  0  0  0  0  0  0  0
    5.3240   -4.6240   19.9210 O   0  0  0  0  0  0  0  0  0  0  0  0
    6.8940   -4.2110   21.5670 N   0  0  0  0  0  0  0  0  0  0  0  0
    6.5980   -5.4190   22.3020 C   0  0  0  0  0  0  0  0  0  0  0  0
    6.1960   -5.1290   23.7320 C   0  0  0  0  0  0  0  0  0  0  0  0
    6.1300   -3.6240   23.9540 C   0  0  0  0  0  0  0  0  0  0  0  0
    5.5790   -3.3350   25.3050 C   0  0  0  0  0  0  0  0  0  0  0  0
    4.4680   -3.7910   25.6410 O   0  0  0  0  0  0  0  0  0  0  0  0
    6.2580   -2.5290   26.2450 N   0  0  0  0  0  0  0  0  0  0  0  0
    5.8430   -1.1560   26.2600 C   0  0  0  0  0  0  0  0  0  0  0  0
    5.4610   -1.5170   27.6370 C   0  0  0  0  0  0  0  0  0  0  0  0
    5.7990   -0.8900   28.7830 N   0  0  0  0  0  0  0  0  0  0  0  0
    5.4200   -1.6570   29.8220 C   0  0  0  0  0  0  0  0  0  0  0  0
    4.4270   -1.1990   30.6910 C   0  0  0  0  0  0  0  0  0  0  0  0
    4.6190    0.0800   31.1500 C   0  0  0  0  0  0  0  0  0  0  0  0
    3.3060    1.1730   31.3600 S   0  0  0  0  0  0  0  0  0  0  0  0
    3.6410    2.1130   32.8110 N   0  0  0  0  0  0  0  0  0  0  0  0
    2.0010    0.4580   31.4910 O   0  0  0  0  0  0  0  0  0  0  0  0
    3.1860    2.1140   30.2160 O   0  0  0  0  0  0  0  0  0  0  0  0
    5.5100    0.7860   30.2300 C   0  0  0  0  0  0  0  0  0  0  0  0
    5.7380    0.5470   28.8880 C   0  0  0  0  0  0  0  0  0  0  0  0
    6.0730   -2.8550   27.6820 C   0  0  0  0  0  0  0  0  0  0  0  0
    7.3330   -2.8760   23.5470 C   0  0  0  0  0  0  0  0  0  0  0  0
    7.6450   -3.1450   22.1520 C   0  0  0  0  0  0  0  0  0  0  0  0
  1  2  1  0
  2  3  2  0
  2  4  1  0
  4  5  1  0
  5  6  1  0
  6  7  1  0
  7  8  1  0
  8  9  2  0
  8 10  1  0
 10 11  1  0
 11 12  1  0
 12 13  1  0
 13 14  1  0
 14 15  1  0
 15 16  1  0
 16 17  1  0
 17 18  1  0
 17 19  2  0
 17 20  2  0
 16 21  1  0
 13 22  1  0
 21 22  1  0
 10 23  1  0
 12 23  1  0
  7 24  1  0
  4 25  1  0
 24 25  1  0
M  END
