piperidine-amides-14032-covalent
     RDKit          3D

 25 26  0  0  0  0  0  0  0  0999 V2000
    7.0640   -3.3090   19.3240 C   0  0  0  0  0  0  0  0  0  0  0  0
    6.3350   -4.1670   20.2990 C   0  0  0  0  0  0  0  0  0  0  0  0
    5.2920   -4.7330   19.9390 O   0  0  0  0  0  0  0  0  0  0  0  0
    6.8620   -4.3720   21.5870 N   0  0  0  0  0  0  0  0  0  0  0  0
    6.4690   -5.5210   22.3740 C   0  0  0  0  0  0  0  0  0  0  0  0
    5.6520   -4.9780   23.5540 C   0  0  0  0  0  0  0  0  0  0  0  0
    6.5080   -3.9330   24.1780 C   0  0  0  0  0  0  0  0  0  0  0  0
    5.9590   -3.2850   25.3850 C   0  0  0  0  0  0  0  0  0  0  0  0
    4.7800   -3.5060   25.6940 O   0  0  0  0  0  0  0  0  0  0  0  0
    6.8420   -2.4590   26.0770 N   0  0  0  0  0  0  0  0  0  0  0  0
    6.6170   -1.4220   27.0150 C   0  0  0  0  0  0  0  0  0  0  0  0
    6.9720   -1.5050   28.3410 C   0  0  0  0  0  0  0  0  0  0  0  0
    6.7710   -0.4780   29.2630 C   0  0  0  0  0  0  0  0  0  0  0  0
    6.1870    0.7090   28.8890 C   0  0  0  0  0  0  0  0  0  0  0  0
    5.9540    1.9850   30.1040 S   0  0  0  0  0  0  0  0  0  0  0  0
    7.2800    3.2020   30.0160 C   0  0  0  0  0  0  0  0  0  0  0  0
    4.6670    2.6810   29.6970 O   0  0  0  0  0  0  0  0  0  0  0  0
    5.8030    1.3500   31.4460 O   0  0  0  0  0  0  0  0  0  0  0  0
    5.7920    0.8890   27.5790 C   0  0  0  0  0  0  0  0  0  0  0  0
    6.0120   -0.2300   26.5710 C   0  0  0  0  0  0  0  0  0  0  0  0
    5.6570   -0.1320   25.2740 O   0  0  0  0  0  0  0  0  0  0  0  0
    4.5340   -0.3650   24.5910 C   0  0  0  0  0  0  0  0  0  0  0  0
    3.6560   -1.3260   25.3020 C   0  0  0  0  0  0  0  0  0  0  0  0
    6.9230   -2.8380   23.2580 C   0  0  0  0  0  0  0  0  0  0  0  0
    7.6560   -3.3690   22.2430 C   0  0  0  0  0  0  0  0  0  0  0  0
  1  2  1  0
  2  3  2  0
  2  4  1  0
  4  5  1  0
  5  6  1  0
  6  7  1  0
  7  8  1  0
  8  9  2  0
  8 10  1  0
 10 11  1  0
 11 12  2  0
 12 13  1  0
 13 14  2  0
 14 15  1  0
 15 16  1  0
 15 17  2  0
 15 18  2  0
 14 19  1  0
 11 20  1  0
 19 20  2  0
 20 21  1  0
 21 22  1  0
 22 23  1  0
  7 24  1  0
  4 25  1  0
 24 25  1  0
M  END
