piperidine-amides-28820-covalent
     RDKit          3D

 26 28  0  0  0  0  0  0  0  0999 V2000
    7.0370   -3.3900   19.4490 C   0  0  0  0  0  0  0  0  0  0  0  0
    6.3780   -4.2550   20.4210 C   0  0  0  0  0  0  0  0  0  0  0  0
    5.4200   -4.9400   20.0110 O   0  0  0  0  0  0  0  0  0  0  0  0
    6.8550   -4.3290   21.7650 N   0  0  0  0  0  0  0  0  0  0  0  0
    6.5350   -5.4890   22.5640 C   0  0  0  0  0  0  0  0  0  0  0  0
    6.0320   -5.0870   23.9410 C   0  0  0  0  0  0  0  0  0  0  0  0
    5.9720   -3.5730   23.9530 C   0  0  0  0  0  0  0  0  0  0  0  0
    5.1610   -2.9130   25.0580 C   0  0  0  0  0  0  0  0  0  0  0  0
    4.5010   -1.9680   24.6730 O   0  0  0  0  0  0  0  0  0  0  0  0
    5.1370   -3.3240   26.3900 N   0  0  0  0  0  0  0  0  0  0  0  0
    3.9590   -3.7730   26.9930 C   0  0  0  0  0  0  0  0  0  0  0  0
    4.2030   -4.4150   28.1850 C   0  0  0  0  0  0  0  0  0  0  0  0
    5.2200   -3.8480   28.8540 C   0  0  0  0  0  0  0  0  0  0  0  0
    4.9410   -2.9370   29.8340 C   0  0  0  0  0  0  0  0  0  0  0  0
    3.8930   -3.6620   30.6450 C   0  0  0  0  0  0  0  0  0  0  0  0
    3.8710   -5.2270   30.5930 C   0  0  0  0  0  0  0  0  0  0  0  0
    3.5190   -5.6490   31.9740 C   0  0  0  0  0  0  0  0  0  0  0  0
    3.7700   -6.8080   32.3900 O   0  0  0  0  0  0  0  0  0  0  0  0
    2.8990   -4.7590   32.8280 O   0  0  0  0  0  0  0  0  0  0  0  0
    3.5260   -4.3540   34.0270 C   0  0  0  0  0  0  0  0  0  0  0  0
    5.0580   -5.8520   30.1450 C   0  0  0  0  0  0  0  0  0  0  0  0
    5.7980   -5.1960   29.1840 C   0  0  0  0  0  0  0  0  0  0  0  0
    6.4730   -4.0390   28.3860 C   0  0  0  0  0  0  0  0  0  0  0  0
    6.3090   -3.8860   26.8750 C   0  0  0  0  0  0  0  0  0  0  0  0
    7.3930   -3.0460   23.7880 C   0  0  0  0  0  0  0  0  0  0  0  0
    7.6890   -3.2920   22.3240 C   0  0  0  0  0  0  0  0  0  0  0  0
  1  2  1  0
  2  3  2  0
  2  4  1  0
  4  5  1  0
  5  6  1  0
  6  7  1  0
  7  8  1  0
  8  9  2  0
  8 10  1  0
 10 11  1  0
 11 12  1  0
 13 12  1  0
 13 14  1  0
 14 15  1  0
 15 16  1  0
 16 17  1  0
 17 18  2  0
 17 19  1  0
 19 20  1  0
 16 21  1  0
 13 22  1  0
 21 22  1  0
 13 23  1  0
 10 24  1  0
 23 24  1  0
  7 25  1  0
  4 26  1  0
 25 26  1  0
M  END
