piperidine-amides-19021-covalent
     RDKit          3D

 21 22  0  0  0  0  0  0  0  0999 V2000
    7.1730   -3.3780   19.4690 C   0  0  0  0  0  0  0  0  0  0  0  0
    6.4570   -4.1970   20.4060 C   0  0  0  0  0  0  0  0  0  0  0  0
    5.4380   -4.8450   19.9950 O   0  0  0  0  0  0  0  0  0  0  0  0
    6.9010   -4.3250   21.7370 N   0  0  0  0  0  0  0  0  0  0  0  0
    6.5780   -5.5620   22.4550 C   0  0  0  0  0  0  0  0  0  0  0  0
    5.5290   -4.9450   23.4480 C   0  0  0  0  0  0  0  0  0  0  0  0
    6.2430   -3.8820   24.2680 C   0  0  0  0  0  0  0  0  0  0  0  0
    5.2020   -3.4400   25.3910 C   0  0  0  0  0  0  0  0  0  0  0  0
    4.1670   -3.1060   24.8400 O   0  0  0  0  0  0  0  0  0  0  0  0
    5.6620   -3.5240   26.5830 N   0  0  0  0  0  0  0  0  0  0  0  0
    6.4280   -3.5630   27.6680 C   0  0  0  0  0  0  0  0  0  0  0  0
    6.8020   -4.5300   28.5390 C   0  0  0  0  0  0  0  0  0  0  0  0
    5.6990   -4.6510   29.3300 C   0  0  0  0  0  0  0  0  0  0  0  0
    5.6990   -5.8780   30.0120 O   0  0  0  0  0  0  0  0  0  0  0  0
    4.4250   -6.1810   30.4710 C   0  0  0  0  0  0  0  0  0  0  0  0
    4.4360   -7.0020   31.7690 C   0  0  0  0  0  0  0  0  0  0  0  0
    3.1290   -7.1350   32.2460 F   0  0  0  0  0  0  0  0  0  0  0  0
    4.5060   -4.5660   28.4770 C   0  0  0  0  0  0  0  0  0  0  0  0
    4.5950   -3.4710   27.5680 C   0  0  0  0  0  0  0  0  0  0  0  0
    6.9690   -2.8200   23.6000 C   0  0  0  0  0  0  0  0  0  0  0  0
    7.7560   -3.4250   22.3990 C   0  0  0  0  0  0  0  0  0  0  0  0
  1  2  1  0
  2  3  2  0
  2  4  1  0
  4  5  1  0
  5  6  1  0
  6  7  1  0
  7  8  1  0
  8  9  2  0
  8 10  1  0
 10 11  1  0
 11 12  1  0
 12 13  1  0
 13 14  1  0
 14 15  1  0
 15 16  1  0
 16 17  1  0
 13 18  1  0
 10 19  1  0
 18 19  1  0
  7 20  1  0
  4 21  1  0
 20 21  1  0
M  END
