piperidine-amides-28898-covalent
     RDKit          3D

 22 24  0  0  0  0  0  0  0  0999 V2000
    6.9970   -3.3990   19.4630 C   0  0  0  0  0  0  0  0  0  0  0  0
    6.3280   -4.2590   20.4410 C   0  0  0  0  0  0  0  0  0  0  0  0
    5.4160   -4.9900   20.0120 O   0  0  0  0  0  0  0  0  0  0  0  0
    6.7340   -4.2790   21.8100 N   0  0  0  0  0  0  0  0  0  0  0  0
    6.6140   -5.5020   22.5590 C   0  0  0  0  0  0  0  0  0  0  0  0
    6.0800   -5.2020   23.9420 C   0  0  0  0  0  0  0  0  0  0  0  0
    5.9290   -3.7010   23.9920 C   0  0  0  0  0  0  0  0  0  0  0  0
    5.3640   -3.1310   25.2970 C   0  0  0  0  0  0  0  0  0  0  0  0
    4.8040   -2.0570   25.1590 O   0  0  0  0  0  0  0  0  0  0  0  0
    5.4530   -3.7750   26.5440 N   0  0  0  0  0  0  0  0  0  0  0  0
    6.5190   -3.5910   27.3910 C   0  0  0  0  0  0  0  0  0  0  0  0
    6.8390   -4.7620   28.1160 C   0  0  0  0  0  0  0  0  0  0  0  0
    5.8040   -5.3080   28.7900 C   0  0  0  0  0  0  0  0  0  0  0  0
    6.0210   -6.3050   29.7190 C   0  0  0  0  0  0  0  0  0  0  0  0
    4.8420   -6.8820   30.4420 C   0  0  0  0  0  0  0  0  0  0  0  0
    3.4070   -6.3810   30.1610 C   0  0  0  0  0  0  0  0  0  0  0  0
    3.2450   -5.3160   29.1470 C   0  0  0  0  0  0  0  0  0  0  0  0
    1.5550   -4.5790   28.6590 Br  0  0  0  0  0  0  0  0  0  0  0  0
    4.5310   -4.8620   28.5250 C   0  0  0  0  0  0  0  0  0  0  0  0
    4.3170   -3.7650   27.4490 C   0  0  0  0  0  0  0  0  0  0  0  0
    7.2690   -3.0560   23.6960 C   0  0  0  0  0  0  0  0  0  0  0  0
    7.5640   -3.2140   22.3480 C   0  0  0  0  0  0  0  0  0  0  0  0
  1  2  1  0
  2  3  2  0
  2  4  1  0
  4  5  1  0
  5  6  1  0
  6  7  1  0
  7  8  1  0
  8  9  2  0
  8 10  1  0
 10 11  1  0
 11 12  1  0
 12 13  1  0
 13 14  2  0
 14 15  1  0
 15 16  2  0
 16 17  1  0
 17 18  1  0
 13 19  1  0
 17 19  2  0
 10 20  1  0
 19 20  1  0
  7 21  1  0
  4 22  1  0
 21 22  1  0
M  END
