piperidine-amides-316-covalent
     RDKit          3D

 32 35  0  0  0  0  0  0  0  0999 V2000
    7.1510   -3.3300   19.4000 C   0  0  0  0  0  0  0  0  0  0  0  0
    6.4370   -4.1420   20.3590 C   0  0  0  0  0  0  0  0  0  0  0  0
    5.4130   -4.7970   19.9720 O   0  0  0  0  0  0  0  0  0  0  0  0
    6.8760   -4.2510   21.6900 N   0  0  0  0  0  0  0  0  0  0  0  0
    7.7570   -3.1890   22.2230 C   0  0  0  0  0  0  0  0  0  0  0  0
    6.7810   -2.5930   23.2940 C   0  0  0  0  0  0  0  0  0  0  0  0
    6.5750   -3.7430   24.2430 C   0  0  0  0  0  0  0  0  0  0  0  0
    5.5390   -3.3850   25.3930 C   0  0  0  0  0  0  0  0  0  0  0  0
    4.4890   -3.9810   25.2060 O   0  0  0  0  0  0  0  0  0  0  0  0
    6.0240   -2.5620   26.2320 N   0  0  0  0  0  0  0  0  0  0  0  0
    6.3430   -1.6440   27.1790 C   0  0  0  0  0  0  0  0  0  0  0  0
    7.0330   -1.6410   28.3990 C   0  0  0  0  0  0  0  0  0  0  0  0
    7.1980   -0.4680   29.2070 C   0  0  0  0  0  0  0  0  0  0  0  0
    6.6280    0.8120   28.7730 C   0  0  0  0  0  0  0  0  0  0  0  0
    7.0330    1.7740   29.9090 C   0  0  0  0  0  0  0  0  0  0  0  0
    5.9430    1.6110   30.8690 N   0  0  0  0  0  0  0  0  0  0  0  0
    6.0770    0.5050   31.7630 C   0  0  0  0  0  0  0  0  0  0  0  0
    4.8290   -0.0510   32.0920 C   0  0  0  0  0  0  0  0  0  0  0  0
    3.9460    1.0320   32.4460 N   0  0  0  0  0  0  0  0  0  0  0  0
    3.0240    0.7380   33.5110 C   0  0  0  0  0  0  0  0  0  0  0  0
    3.6220   -0.1390   34.6450 C   0  0  0  0  0  0  0  0  0  0  0  0
    2.7860   -0.4390   35.6660 C   0  0  0  0  0  0  0  0  0  0  0  0
    1.4930   -0.0020   35.7090 C   0  0  0  0  0  0  0  0  0  0  0  0
    0.9310    0.7710   34.7320 C   0  0  0  0  0  0  0  0  0  0  0  0
   -0.3850    1.1520   34.8850 C   0  0  0  0  0  0  0  0  0  0  0  0
    1.6960    1.1460   33.6260 C   0  0  0  0  0  0  0  0  0  0  0  0
    3.7250    2.0100   31.4000 C   0  0  0  0  0  0  0  0  0  0  0  0
    4.7370    1.7840   30.3140 C   0  0  0  0  0  0  0  0  0  0  0  0
    5.9500    0.8850   27.6110 C   0  0  0  0  0  0  0  0  0  0  0  0
    5.8080   -0.3810   26.7950 C   0  0  0  0  0  0  0  0  0  0  0  0
    6.0750   -5.0460   23.6580 C   0  0  0  0  0  0  0  0  0  0  0  0
    6.7060   -5.4340   22.4940 C   0  0  0  0  0  0  0  0  0  0  0  0
  1  2  1  0
  2  3  2  0
  2  4  1  0
  4  5  1  0
  5  6  1  0
  6  7  1  0
  7  8  1  0
  8  9  2  0
  8 10  1  0
 10 11  1  0
 11 12  2  0
 12 13  1  0
 13 14  2  0
 14 15  1  0
 15 16  1  0
 16 17  1  0
 17 18  1  0
 18 19  1  0
 19 20  1  0
 20 21  2  0
 21 22  1  0
 22 23  2  0
 23 24  1  0
 24 25  1  0
 20 26  1  0
 24 26  2  0
 19 27  1  0
 16 28  1  0
 27 28  1  0
 14 29  1  0
 11 30  1  0
 29 30  2  0
  7 31  1  0
  4 32  1  0
 31 32  1  0
M  END
