piperidine-amides-520-covalent
     RDKit          3D

 27 29  0  0  0  0  0  0  0  0999 V2000
    7.0670   -3.3560   19.2330 C   0  0  0  0  0  0  0  0  0  0  0  0
    6.3720   -4.0770   20.2770 C   0  0  0  0  0  0  0  0  0  0  0  0
    5.3160   -4.6940   19.9410 O   0  0  0  0  0  0  0  0  0  0  0  0
    6.8290   -4.1880   21.6060 N   0  0  0  0  0  0  0  0  0  0  0  0
    7.6630   -3.1000   22.1830 C   0  0  0  0  0  0  0  0  0  0  0  0
    6.7360   -2.6320   23.3700 C   0  0  0  0  0  0  0  0  0  0  0  0
    6.5880   -3.8660   24.2140 C   0  0  0  0  0  0  0  0  0  0  0  0
    5.8090   -3.6350   25.5800 C   0  0  0  0  0  0  0  0  0  0  0  0
    5.0530   -4.5660   25.7730 O   0  0  0  0  0  0  0  0  0  0  0  0
    6.1110   -2.5410   26.1430 N   0  0  0  0  0  0  0  0  0  0  0  0
    6.1820   -1.3590   26.8070 C   0  0  0  0  0  0  0  0  0  0  0  0
    5.8320   -0.0620   26.5420 C   0  0  0  0  0  0  0  0  0  0  0  0
    6.0140    0.9850   27.4730 C   0  0  0  0  0  0  0  0  0  0  0  0
    6.5960    0.7840   28.8060 C   0  0  0  0  0  0  0  0  0  0  0  0
    6.7700    1.8340   29.7300 N   0  0  0  0  0  0  0  0  0  0  0  0
    6.6490    1.6130   31.1720 C   0  0  0  0  0  0  0  0  0  0  0  0
    5.3940    2.1960   31.3840 C   0  0  0  0  0  0  0  0  0  0  0  0
    5.4060    3.1810   32.3870 C   0  0  0  0  0  0  0  0  0  0  0  0
    4.9550    3.6260   30.9890 C   0  0  0  0  0  0  0  0  0  0  0  0
    5.9600    4.6440   30.3530 C   0  0  0  0  0  0  0  0  0  0  0  0
    7.1710    4.0700   30.0350 C   0  0  0  0  0  0  0  0  0  0  0  0
    7.1560    3.0600   29.1090 C   0  0  0  0  0  0  0  0  0  0  0  0
    6.9890   -0.6140   29.1140 C   0  0  0  0  0  0  0  0  0  0  0  0
    7.5350   -0.9000   30.3220 F   0  0  0  0  0  0  0  0  0  0  0  0
    6.7950   -1.6110   28.1810 C   0  0  0  0  0  0  0  0  0  0  0  0
    6.0330   -5.1030   23.5880 C   0  0  0  0  0  0  0  0  0  0  0  0
    6.6810   -5.4440   22.2910 C   0  0  0  0  0  0  0  0  0  0  0  0
  1  2  1  0
  2  3  2  0
  2  4  1  0
  4  5  1  0
  5  6  1  0
  6  7  1  0
  7  8  1  0
  8  9  2  0
  8 10  1  0
 10 11  1  0
 11 12  2  0
 12 13  1  0
 13 14  2  0
 14 15  1  0
 15 16  1  0
 16 17  1  0
 17 18  1  0
 18 19  1  0
 19 20  1  0
 20 21  1  0
 15 22  1  0
 21 22  1  0
 14 23  1  0
 23 24  1  0
 11 25  1  0
 23 25  2  0
  7 26  1  0
  4 27  1  0
 26 27  1  0
M  END
