piperidine-amides-10418-covalent
     RDKit          3D

 24 26  0  0  0  0  0  0  0  0999 V2000
    7.0650   -3.3520   19.3100 C   0  0  0  0  0  0  0  0  0  0  0  0
    6.4000   -4.1790   20.3180 C   0  0  0  0  0  0  0  0  0  0  0  0
    5.3540   -4.7800   19.9630 O   0  0  0  0  0  0  0  0  0  0  0  0
    6.9690   -4.3000   21.5830 N   0  0  0  0  0  0  0  0  0  0  0  0
    7.7910   -3.2520   22.1400 C   0  0  0  0  0  0  0  0  0  0  0  0
    7.3110   -2.9530   23.5160 C   0  0  0  0  0  0  0  0  0  0  0  0
    5.9590   -3.5540   23.7960 C   0  0  0  0  0  0  0  0  0  0  0  0
    5.6320   -3.1490   25.1610 C   0  0  0  0  0  0  0  0  0  0  0  0
    4.4720   -3.3040   25.6040 O   0  0  0  0  0  0  0  0  0  0  0  0
    6.6390   -2.5760   25.9360 N   0  0  0  0  0  0  0  0  0  0  0  0
    6.4020   -1.6430   26.9930 C   0  0  0  0  0  0  0  0  0  0  0  0
    6.4450   -0.1740   26.6340 C   0  0  0  0  0  0  0  0  0  0  0  0
    6.2610    0.8040   27.5810 C   0  0  0  0  0  0  0  0  0  0  0  0
    6.0330    0.4460   28.8920 C   0  0  0  0  0  0  0  0  0  0  0  0
    5.7850    1.7660   30.2490 Br  0  0  0  0  0  0  0  0  0  0  0  0
    5.9810   -0.9100   29.1990 C   0  0  0  0  0  0  0  0  0  0  0  0
    6.1420   -1.9590   28.3090 C   0  0  0  0  0  0  0  0  0  0  0  0
    6.0360   -3.2950   28.6510 C   0  0  0  0  0  0  0  0  0  0  0  0
    7.0790   -4.0960   28.6690 N   0  0  0  0  0  0  0  0  0  0  0  0
    6.8860   -5.3670   28.9880 N   0  0  0  0  0  0  0  0  0  0  0  0
    5.4910   -5.3190   29.2000 C   0  0  0  0  0  0  0  0  0  0  0  0
    4.9560   -4.0260   28.9930 N   0  0  0  0  0  0  0  0  0  0  0  0
    5.9780   -5.0400   23.6780 C   0  0  0  0  0  0  0  0  0  0  0  0
    6.5820   -5.4740   22.3670 C   0  0  0  0  0  0  0  0  0  0  0  0
  1  2  1  0
  2  3  2  0
  2  4  1  0
  4  5  1  0
  5  6  1  0
  6  7  1  0
  7  8  1  0
  8  9  2  0
  8 10  1  0
 10 11  1  0
 11 12  2  0
 12 13  1  0
 13 14  2  0
 14 15  1  0
 14 16  1  0
 11 17  1  0
 16 17  2  0
 17 18  1  0
 18 19  2  0
 19 20  1  0
 20 21  2  0
 18 22  1  0
 21 22  1  0
  7 23  1  0
  4 24  1  0
 23 24  1  0
M  END
