piperidine-amides-12168-covalent
     RDKit          3D

 25 27  0  0  0  0  0  0  0  0999 V2000
    7.0970   -3.2850   19.1860 C   0  0  0  0  0  0  0  0  0  0  0  0
    6.3270   -4.0220   20.1820 C   0  0  0  0  0  0  0  0  0  0  0  0
    5.2540   -4.5310   19.8730 O   0  0  0  0  0  0  0  0  0  0  0  0
    6.8500   -4.2130   21.5040 N   0  0  0  0  0  0  0  0  0  0  0  0
    7.6420   -3.1800   22.1220 C   0  0  0  0  0  0  0  0  0  0  0  0
    6.9490   -2.6570   23.3440 C   0  0  0  0  0  0  0  0  0  0  0  0
    6.5690   -3.8490   24.2020 C   0  0  0  0  0  0  0  0  0  0  0  0
    5.7060   -3.4300   25.3380 C   0  0  0  0  0  0  0  0  0  0  0  0
    4.4690   -3.5670   25.3170 O   0  0  0  0  0  0  0  0  0  0  0  0
    6.3070   -2.8490   26.4780 N   0  0  0  0  0  0  0  0  0  0  0  0
    6.6240   -1.4480   26.4030 C   0  0  0  0  0  0  0  0  0  0  0  0
    6.0660   -0.7500   27.6210 C   0  0  2  0  0  0  0  0  0  0  0  0
    6.7270   -1.0390   28.7930 C   0  0  0  0  0  0  0  0  0  0  0  0
    6.0410   -1.1970   29.9900 C   0  0  0  0  0  0  0  0  0  0  0  0
    4.8300   -0.5690   30.1450 C   0  0  0  0  0  0  0  0  0  0  0  0
    4.9150    0.7930   30.6460 C   0  0  0  0  0  0  0  0  0  0  0  0
    4.0480   -1.0480   31.1590 C   0  0  0  0  0  0  0  0  0  0  0  0
    4.0990   -0.7250   28.9870 C   0  0  0  0  0  0  0  0  0  0  0  0
    2.6960   -0.8010   29.0070 C   0  0  0  0  0  0  0  0  0  0  0  0
    1.9080   -0.9650   27.7850 C   0  0  0  0  0  0  0  0  0  0  0  0
    2.4750   -1.0560   26.5430 C   0  0  0  0  0  0  0  0  0  0  0  0
    3.8520   -0.9820   26.5280 C   0  0  0  0  0  0  0  0  0  0  0  0
    4.6990   -0.8140   27.7530 C   0  0  0  0  0  0  0  0  0  0  0  0
    5.7940   -4.9230   23.4990 C   0  0  0  0  0  0  0  0  0  0  0  0
    6.5010   -5.3810   22.2490 C   0  0  0  0  0  0  0  0  0  0  0  0
  1  2  1  0
  2  3  2  0
  2  4  1  0
  4  5  1  0
  5  6  1  0
  6  7  1  0
  7  8  1  0
  8  9  2  0
  8 10  1  0
 10 11  1  0
 12 11  1  6
 12 13  1  0
 13 14  1  0
 14 15  1  0
 15 16  1  0
 15 17  1  0
 15 18  1  0
 18 19  2  0
 19 20  1  0
 20 21  2  0
 21 22  1  0
 12 23  1  0
 18 23  1  0
 22 23  2  0
  7 24  1  0
  4 25  1  0
 24 25  1  0
M  END
