piperidine-amides-12406-covalent
     RDKit          3D

 24 27  0  0  0  0  0  0  0  0999 V2000
    7.0330   -3.3300   19.3450 C   0  0  0  0  0  0  0  0  0  0  0  0
    6.3430   -4.1710   20.3190 C   0  0  0  0  0  0  0  0  0  0  0  0
    5.3750   -4.8470   19.9760 O   0  0  0  0  0  0  0  0  0  0  0  0
    6.8150   -4.2430   21.6750 N   0  0  0  0  0  0  0  0  0  0  0  0
    7.6720   -3.2020   22.1990 C   0  0  0  0  0  0  0  0  0  0  0  0
    7.3960   -2.9680   23.6520 C   0  0  0  0  0  0  0  0  0  0  0  0
    6.0300   -3.5540   23.9430 C   0  0  0  0  0  0  0  0  0  0  0  0
    5.6010   -3.2170   25.3290 C   0  0  0  0  0  0  0  0  0  0  0  0
    4.4080   -3.2720   25.6840 O   0  0  0  0  0  0  0  0  0  0  0  0
    6.5830   -2.8210   26.2630 N   0  0  0  0  0  0  0  0  0  0  0  0
    6.4390   -1.5720   26.9790 C   0  0  0  0  0  0  0  0  0  0  0  0
    7.0410   -1.5600   28.3720 C   0  0  0  0  0  0  0  0  0  0  0  0
    6.9690   -0.4170   29.1640 C   0  0  0  0  0  0  0  0  0  0  0  0
    6.3200    0.6910   28.6020 C   0  0  0  0  0  0  0  0  0  0  0  0
    5.8080    0.6680   27.4050 C   0  0  0  0  0  0  0  0  0  0  0  0
    5.2630    1.8580   27.1530 C   0  0  0  0  0  0  0  0  0  0  0  0
    4.6440    2.1410   25.9690 C   0  0  0  0  0  0  0  0  0  0  0  0
    4.5930    1.1410   25.0110 C   0  0  0  0  0  0  0  0  0  0  0  0
    5.1620   -0.1300   25.2490 C   0  0  0  0  0  0  0  0  0  0  0  0
    5.8210   -0.3890   26.5470 C   0  0  0  0  0  0  0  0  0  0  0  0
    5.4720    2.6240   28.2810 C   0  0  0  0  0  0  0  0  0  0  0  0
    6.1950    2.0040   29.4280 C   0  0  0  0  0  0  0  0  0  0  0  0
    6.0380   -5.0580   23.7860 C   0  0  0  0  0  0  0  0  0  0  0  0
    6.6620   -5.4550   22.4380 C   0  0  0  0  0  0  0  0  0  0  0  0
  1  2  1  0
  2  3  2  0
  2  4  1  0
  4  5  1  0
  5  6  1  0
  6  7  1  0
  7  8  1  0
  8  9  2  0
  8 10  1  0
 10 11  1  0
 11 12  2  0
 12 13  1  0
 13 14  2  0
 14 15  1  0
 15 16  1  0
 16 17  2  0
 17 18  1  0
 18 19  2  0
 11 20  1  0
 15 20  2  0
 19 20  1  0
 16 21  1  0
 14 22  1  0
 21 22  1  0
  7 23  1  0
  4 24  1  0
 23 24  1  0
M  END
