piperidine-amides-12243-covalent
     RDKit          3D

 25 27  0  0  0  0  0  0  0  0999 V2000
    7.0790   -3.3440   19.2560 C   0  0  0  0  0  0  0  0  0  0  0  0
    6.3900   -4.1550   20.2530 C   0  0  0  0  0  0  0  0  0  0  0  0
    5.3480   -4.7340   19.9560 O   0  0  0  0  0  0  0  0  0  0  0  0
    6.9580   -4.3350   21.5590 N   0  0  0  0  0  0  0  0  0  0  0  0
    6.5060   -5.4320   22.3710 C   0  0  0  0  0  0  0  0  0  0  0  0
    5.6990   -4.8970   23.5210 C   0  0  0  0  0  0  0  0  0  0  0  0
    6.5210   -3.8260   24.2200 C   0  0  0  0  0  0  0  0  0  0  0  0
    5.7850   -3.2570   25.3740 C   0  0  0  0  0  0  0  0  0  0  0  0
    4.5590   -3.0260   25.3410 O   0  0  0  0  0  0  0  0  0  0  0  0
    6.5140   -2.9790   26.5440 N   0  0  0  0  0  0  0  0  0  0  0  0
    6.4310   -1.6770   27.1560 C   0  0  0  0  0  0  0  0  0  0  0  0
    7.0320   -1.6420   28.5230 C   0  0  0  0  0  0  0  0  0  0  0  0
    7.0320   -0.4830   29.2520 C   0  0  0  0  0  0  0  0  0  0  0  0
    6.4570    0.6720   28.7000 C   0  0  0  0  0  0  0  0  0  0  0  0
    6.4660    1.8410   29.4840 N   0  0  0  0  0  0  0  0  0  0  0  0
    6.7560    3.1440   29.1060 C   0  0  0  0  0  0  0  0  0  0  0  0
    6.6430    4.0470   30.2340 N   0  0  0  0  0  0  0  0  0  0  0  0
    6.2670    3.2530   31.3520 C   0  0  0  0  0  0  0  0  0  0  0  0
    6.0260    3.6060   32.6570 C   0  0  0  0  0  0  0  0  0  0  0  0
    6.1770    1.9800   30.8720 C   0  0  0  0  0  0  0  0  0  0  0  0
    5.8380    0.8390   31.6060 C   0  0  0  0  0  0  0  0  0  0  0  0
    5.8990    0.6380   27.4190 C   0  0  0  0  0  0  0  0  0  0  0  0
    5.8720   -0.5040   26.6340 C   0  0  0  0  0  0  0  0  0  0  0  0
    6.8790   -2.7000   23.3020 C   0  0  0  0  0  0  0  0  0  0  0  0
    7.6340   -3.2330   22.1450 C   0  0  0  0  0  0  0  0  0  0  0  0
  1  2  1  0
  2  3  2  0
  2  4  1  0
  4  5  1  0
  5  6  1  0
  6  7  1  0
  7  8  1  0
  8  9  2  0
  8 10  1  0
 10 11  1  0
 11 12  2  0
 12 13  1  0
 13 14  2  0
 14 15  1  0
 15 16  1  0
 16 17  2  0
 17 18  1  0
 18 19  1  0
 15 20  1  0
 18 20  2  0
 20 21  1  0
 14 22  1  0
 11 23  1  0
 22 23  2  0
  7 24  1  0
  4 25  1  0
 24 25  1  0
M  END
