piperidine-amides-13348-covalent
     RDKit          3D

 20 21  0  0  0  0  0  0  0  0999 V2000
    7.0510   -3.3130   19.2490 C   0  0  0  0  0  0  0  0  0  0  0  0
    6.3640   -4.1060   20.2970 C   0  0  0  0  0  0  0  0  0  0  0  0
    5.3220   -4.6840   19.9370 O   0  0  0  0  0  0  0  0  0  0  0  0
    6.8870   -4.2380   21.6000 N   0  0  0  0  0  0  0  0  0  0  0  0
    6.5740   -5.4020   22.3660 C   0  0  0  0  0  0  0  0  0  0  0  0
    5.9840   -5.0820   23.6660 C   0  0  0  0  0  0  0  0  0  0  0  0
    5.9700   -3.6310   23.9400 C   0  0  0  0  0  0  0  0  0  0  0  0
    5.5170   -3.3210   25.3260 C   0  0  0  0  0  0  0  0  0  0  0  0
    4.3470   -2.9300   25.4730 O   0  0  0  0  0  0  0  0  0  0  0  0
    6.3600   -3.4500   26.4440 N   0  0  0  0  0  0  0  0  0  0  0  0
    5.8680   -3.6420   27.8370 C   0  0  0  0  0  0  0  0  0  0  0  0
    5.5590   -5.0650   28.2260 C   0  0  1  0  0  0  0  0  0  0  0  0
    5.9550   -6.1530   27.3420 C   0  0  0  0  0  0  0  0  0  0  0  0
    6.5770   -6.0240   28.6810 C   0  0  0  0  0  0  0  0  0  0  0  0
    5.6940   -7.2470   29.6890 S   0  0  0  0  0  0  0  0  0  0  0  0
    4.0460   -6.7310   29.3360 C   0  0  0  0  0  0  0  0  0  0  0  0
    2.9480   -7.4060   29.7740 C   0  0  0  0  0  0  0  0  0  0  0  0
    4.2210   -5.5230   28.5400 N   0  0  0  0  0  0  0  0  0  0  0  0
    7.2130   -2.8970   23.5350 C   0  0  0  0  0  0  0  0  0  0  0  0
    7.6580   -3.2160   22.2750 C   0  0  0  0  0  0  0  0  0  0  0  0
  1  2  1  0
  2  3  2  0
  2  4  1  0
  4  5  1  0
  5  6  1  0
  6  7  1  0
  7  8  1  0
  8  9  2  0
  8 10  1  0
 10 11  1  0
 12 11  1  0
 12 13  1  6
 12 14  1  0
 14 15  1  0
 15 16  1  0
 16 17  1  0
 12 18  1  0
 16 18  2  0
  7 19  1  0
  4 20  1  0
 19 20  1  0
M  END
