piperidine-amides-14723-covalent
     RDKit          3D

 22 23  0  0  0  0  0  0  0  0999 V2000
    7.1120   -3.2750   19.2440 C   0  0  0  0  0  0  0  0  0  0  0  0
    6.3590   -4.0410   20.2420 C   0  0  0  0  0  0  0  0  0  0  0  0
    5.2790   -4.5510   19.8900 O   0  0  0  0  0  0  0  0  0  0  0  0
    6.8870   -4.2420   21.5460 N   0  0  0  0  0  0  0  0  0  0  0  0
    6.5200   -5.4050   22.3000 C   0  0  0  0  0  0  0  0  0  0  0  0
    5.7320   -4.9670   23.4980 C   0  0  0  0  0  0  0  0  0  0  0  0
    6.5290   -3.8710   24.1680 C   0  0  0  0  0  0  0  0  0  0  0  0
    5.7500   -3.3120   25.3210 C   0  0  0  0  0  0  0  0  0  0  0  0
    4.5920   -2.9820   25.0810 O   0  0  0  0  0  0  0  0  0  0  0  0
    6.3700   -3.2060   26.5640 N   0  0  0  0  0  0  0  0  0  0  0  0
    6.0890   -4.1050   27.6390 C   0  0  0  0  0  0  0  0  0  0  0  0
    4.7440   -4.1170   28.0420 C   0  0  1  0  0  0  0  0  0  0  0  0
    4.2420   -5.3350   28.4400 C   0  0  0  0  0  0  0  0  0  0  0  0
    3.4540   -5.0990   29.4800 C   0  0  0  0  0  0  0  0  0  0  0  0
    2.7280   -6.3520   29.8810 C   0  0  0  0  0  0  0  0  0  0  0  0
    3.5450   -7.3030   30.3970 F   0  0  0  0  0  0  0  0  0  0  0  0
    1.7690   -5.9850   30.8190 F   0  0  0  0  0  0  0  0  0  0  0  0
    2.0590   -6.7710   28.7330 F   0  0  0  0  0  0  0  0  0  0  0  0
    3.5560   -3.7810   29.8460 N   0  0  0  0  0  0  0  0  0  0  0  0
    4.4100   -3.3020   29.0120 O   0  0  0  0  0  0  0  0  0  0  0  0
    6.8130   -2.6850   23.2960 C   0  0  0  0  0  0  0  0  0  0  0  0
    7.6280   -3.1150   22.1400 C   0  0  0  0  0  0  0  0  0  0  0  0
  1  2  1  0
  2  3  2  0
  2  4  1  0
  4  5  1  0
  5  6  1  0
  6  7  1  0
  7  8  1  0
  8  9  2  0
  8 10  1  0
 10 11  1  0
 12 11  1  1
 12 13  1  0
 13 14  1  0
 14 15  1  0
 15 16  1  0
 15 17  1  0
 15 18  1  0
 14 19  2  0
 12 20  1  0
 19 20  1  0
  7 21  1  0
  4 22  1  0
 21 22  1  0
M  END
