piperidine-amides-25779-covalent
     RDKit          3D

 25 27  0  0  0  0  0  0  0  0999 V2000
    7.0190   -3.3560   19.3640 C   0  0  0  0  0  0  0  0  0  0  0  0
    6.3660   -4.2410   20.3600 C   0  0  0  0  0  0  0  0  0  0  0  0
    5.3680   -4.8510   19.9820 O   0  0  0  0  0  0  0  0  0  0  0  0
    6.9020   -4.4010   21.6460 N   0  0  0  0  0  0  0  0  0  0  0  0
    6.6220   -5.5660   22.4340 C   0  0  0  0  0  0  0  0  0  0  0  0
    5.7690   -5.1570   23.6050 C   0  0  0  0  0  0  0  0  0  0  0  0
    6.3430   -3.9170   24.3060 C   0  0  0  0  0  0  0  0  0  0  0  0
    5.3150   -3.3880   25.2480 C   0  0  0  0  0  0  0  0  0  0  0  0
    4.3370   -2.8250   24.7630 O   0  0  0  0  0  0  0  0  0  0  0  0
    5.3980   -3.5010   26.6670 N   0  0  0  0  0  0  0  0  0  0  0  0
    4.2220   -3.9530   27.3770 C   0  0  0  0  0  0  0  0  0  0  0  0
    4.5870   -4.4780   28.7540 C   0  0  0  0  0  0  0  0  0  0  0  0
    5.8130   -4.3190   29.2690 C   0  0  0  0  0  0  0  0  0  0  0  0
    6.7220   -4.1440   28.3470 C   0  0  0  0  0  0  0  0  0  0  0  0
    6.4700   -3.1190   27.4490 C   0  0  2  0  0  0  0  0  0  0  0  0
    6.5730   -1.6310   27.7790 C   0  0  0  0  0  0  0  0  0  0  0  0
    5.3150   -1.4750   28.5730 C   0  0  0  0  0  0  0  0  0  0  0  0
    5.7600   -1.3690   30.0150 C   0  0  0  0  0  0  0  0  0  0  0  0
    4.6420   -1.1950   30.9910 C   0  0  0  0  0  0  0  0  0  0  0  0
    3.2450   -1.1390   30.5050 C   0  0  0  0  0  0  0  0  0  0  0  0
    2.2580   -0.9910   31.3070 O   0  0  0  0  0  0  0  0  0  0  0  0
    2.8990   -1.2540   29.0430 C   0  0  0  0  0  0  0  0  0  0  0  0
    4.0190   -1.4270   28.0730 C   0  0  0  0  0  0  0  0  0  0  0  0
    6.7200   -2.8220   23.3020 C   0  0  0  0  0  0  0  0  0  0  0  0
    7.5790   -3.3270   22.3460 C   0  0  0  0  0  0  0  0  0  0  0  0
  1  2  1  0
  2  3  2  0
  2  4  1  0
  4  5  1  0
  5  6  1  0
  6  7  1  0
  7  8  1  0
  8  9  2  0
  8 10  1  0
 10 11  1  0
 11 12  1  0
 12 13  1  0
 13 14  1  0
 10 15  1  0
 14 15  1  0
 15 16  1  1
 16 17  1  0
 17 18  2  0
 18 19  1  0
 19 20  2  0
 20 21  1  0
 20 22  1  0
 17 23  1  0
 22 23  2  0
  7 24  1  0
  4 25  1  0
 24 25  1  0
M  END
