piperidine-amides-28985-covalent
     RDKit          3D

 26 28  0  0  0  0  0  0  0  0999 V2000
    7.1790   -3.3110   19.2140 C   0  0  0  0  0  0  0  0  0  0  0  0
    6.4790   -4.1010   20.2120 C   0  0  0  0  0  0  0  0  0  0  0  0
    5.3790   -4.6170   19.9240 O   0  0  0  0  0  0  0  0  0  0  0  0
    7.1130   -4.3140   21.4500 N   0  0  0  0  0  0  0  0  0  0  0  0
    6.6730   -5.4170   22.2300 C   0  0  0  0  0  0  0  0  0  0  0  0
    5.7610   -4.8720   23.2740 C   0  0  0  0  0  0  0  0  0  0  0  0
    6.5630   -3.8210   24.0160 C   0  0  0  0  0  0  0  0  0  0  0  0
    5.7280   -3.2690   25.0930 C   0  0  0  0  0  0  0  0  0  0  0  0
    5.1940   -2.1800   24.9350 O   0  0  0  0  0  0  0  0  0  0  0  0
    5.6170   -4.0660   26.1710 N   0  0  0  0  0  0  0  0  0  0  0  0
    5.8630   -5.4480   26.0750 C   0  0  0  0  0  0  0  0  0  0  0  0
    6.1730   -5.8440   27.3390 C   0  0  0  0  0  0  0  0  0  0  0  0
    6.2430   -4.7000   28.0490 C   0  0  0  0  0  0  0  0  0  0  0  0
    6.1860   -4.7490   29.3100 C   0  0  0  0  0  0  0  0  0  0  0  0
    4.8200   -4.5940   29.2610 N   0  0  0  0  0  0  0  0  0  0  0  0
    3.9610   -5.4000   30.1090 C   0  0  0  0  0  0  0  0  0  0  0  0
    2.6150   -5.5780   29.9010 O   0  0  0  0  0  0  0  0  0  0  0  0
    4.5320   -6.0370   31.2130 O   0  0  0  0  0  0  0  0  0  0  0  0
    4.7930   -7.4120   31.1170 C   0  0  0  0  0  0  0  0  0  0  0  0
    3.4800   -8.0670   30.9310 C   0  0  0  0  0  0  0  0  0  0  0  0
    5.3970   -7.7650   32.4540 C   0  0  0  0  0  0  0  0  0  0  0  0
    5.7770   -7.6900   30.1570 C   0  0  0  0  0  0  0  0  0  0  0  0
    4.7210   -4.4770   27.8170 C   0  0  0  0  0  0  0  0  0  0  0  0
    5.8380   -3.5260   27.4660 C   0  0  0  0  0  0  0  0  0  0  0  0
    7.0270   -2.7010   23.1770 C   0  0  0  0  0  0  0  0  0  0  0  0
    7.8450   -3.2330   22.0640 C   0  0  0  0  0  0  0  0  0  0  0  0
  1  2  1  0
  2  3  2  0
  2  4  1  0
  4  5  1  0
  5  6  1  0
  6  7  1  0
  7  8  1  0
  8  9  2  0
  8 10  1  0
 10 11  1  0
 11 12  1  0
 13 12  1  0
 13 14  1  0
 14 15  1  0
 15 16  1  0
 16 17  2  0
 16 18  1  0
 19 18  1  0
 19 20  1  0
 19 21  1  0
 19 22  1  0
 13 23  1  0
 15 23  1  0
 10 24  1  0
 13 24  1  0
  7 25  1  0
  4 26  1  0
 25 26  1  0
M  END
