piperidine-amides-11042-covalent
     RDKit          3D

 21 22  0  0  0  0  0  0  0  0999 V2000
    7.1150   -3.2670   19.1940 C   0  0  0  0  0  0  0  0  0  0  0  0
    6.3620   -4.0040   20.2080 C   0  0  0  0  0  0  0  0  0  0  0  0
    5.3020   -4.5710   19.8930 O   0  0  0  0  0  0  0  0  0  0  0  0
    6.8380   -4.1290   21.5210 N   0  0  0  0  0  0  0  0  0  0  0  0
    7.6690   -3.1340   22.1590 C   0  0  0  0  0  0  0  0  0  0  0  0
    7.2360   -3.0770   23.6000 C   0  0  0  0  0  0  0  0  0  0  0  0
    5.7720   -3.3000   23.7870 C   0  0  0  0  0  0  0  0  0  0  0  0
    5.3180   -3.1000   25.1970 C   0  0  0  0  0  0  0  0  0  0  0  0
    4.0940   -2.8880   25.4180 O   0  0  0  0  0  0  0  0  0  0  0  0
    6.1530   -3.1250   26.3440 N   0  0  0  0  0  0  0  0  0  0  0  0
    5.6210   -3.6980   27.6110 C   0  0  2  0  0  0  0  0  0  0  0  0
    6.7320   -3.8480   28.5680 C   0  0  0  0  0  0  0  0  0  0  0  0
    5.1430   -5.1290   27.3670 C   0  0  0  0  0  0  0  0  0  0  0  0
    6.4040   -5.4220   26.7040 C   0  0  0  0  0  0  0  0  0  0  0  0
    6.8680   -5.3030   25.2700 C   0  0  0  0  0  0  0  0  0  0  0  0
    8.2640   -5.6670   25.0180 N   0  0  0  0  0  0  0  0  0  0  0  0
    8.5870   -5.9840   26.2470 N   0  0  0  0  0  0  0  0  0  0  0  0
    9.8070   -6.3370   26.3770 C   0  0  0  0  0  0  0  0  0  0  0  0
    7.6600   -5.9110   27.2890 C   0  0  0  0  0  0  0  0  0  0  0  0
    5.3270   -4.6600   23.2750 C   0  0  0  0  0  0  0  0  0  0  0  0
    6.3820   -5.2250   22.3420 C   0  0  0  0  0  0  0  0  0  0  0  0
  1  2  1  0
  2  3  2  0
  2  4  1  0
  4  5  1  0
  5  6  1  0
  6  7  1  0
  7  8  1  0
  8  9  2  0
  8 10  1  0
 10 11  1  0
 11 12  1  1
 11 13  1  0
 13 14  1  0
 14 15  1  0
 15 16  2  0
 16 17  1  0
 17 18  1  0
 14 19  2  0
 17 19  1  0
  7 20  1  0
  4 21  1  0
 20 21  1  0
M  END
