piperidine-amides-23788-covalent
     RDKit          3D

 24 26  0  0  0  0  0  0  0  0999 V2000
    7.0210   -3.3830   19.4130 C   0  0  0  0  0  0  0  0  0  0  0  0
    6.4070   -4.2550   20.4290 C   0  0  0  0  0  0  0  0  0  0  0  0
    5.4410   -4.9510   20.0170 O   0  0  0  0  0  0  0  0  0  0  0  0
    6.9020   -4.3410   21.7730 N   0  0  0  0  0  0  0  0  0  0  0  0
    6.5860   -5.4910   22.5570 C   0  0  0  0  0  0  0  0  0  0  0  0
    6.0020   -5.1280   23.8450 C   0  0  0  0  0  0  0  0  0  0  0  0
    5.9010   -3.6650   23.9690 C   0  0  0  0  0  0  0  0  0  0  0  0
    5.0920   -3.1420   25.1590 C   0  0  0  0  0  0  0  0  0  0  0  0
    3.9810   -2.6740   24.8960 O   0  0  0  0  0  0  0  0  0  0  0  0
    5.4440   -3.1190   26.5350 N   0  0  0  0  0  0  0  0  0  0  0  0
    6.6740   -3.2380   27.0460 C   0  0  0  0  0  0  0  0  0  0  0  0
    6.7230   -4.3040   28.0430 C   0  0  0  0  0  0  0  0  0  0  0  0
    5.2380   -4.2970   28.4500 C   0  0  0  0  0  0  0  0  0  0  0  0
    4.5090   -3.5290   27.5360 C   0  0  2  0  0  0  0  0  0  0  0  0
    3.6790   -4.7490   27.1060 C   0  0  0  0  0  0  0  0  0  0  0  0
    4.3850   -5.9760   27.6170 C   0  0  0  0  0  0  0  0  0  0  0  0
    3.5140   -7.1810   27.1660 C   0  0  0  0  0  0  0  0  0  0  0  0
    2.2140   -7.2230   26.3750 C   0  0  0  0  0  0  0  0  0  0  0  0
    1.5880   -8.4080   26.0730 F   0  0  0  0  0  0  0  0  0  0  0  0
    1.6510   -5.8980   25.9400 C   0  0  0  0  0  0  0  0  0  0  0  0
    2.4050   -4.6420   26.3180 C   0  0  0  0  0  0  0  0  0  0  0  0
    1.8090   -3.3570   25.8650 C   0  0  0  0  0  0  0  0  0  0  0  0
    7.1940   -2.9660   23.6800 C   0  0  0  0  0  0  0  0  0  0  0  0
    7.6290   -3.2280   22.3710 C   0  0  0  0  0  0  0  0  0  0  0  0
  1  2  1  0
  2  3  2  0
  2  4  1  0
  4  5  1  0
  5  6  1  0
  6  7  1  0
  7  8  1  0
  8  9  2  0
  8 10  1  0
 10 11  1  0
 11 12  1  0
 12 13  1  0
 10 14  1  0
 13 14  1  0
 14 15  1  6
 15 16  2  0
 16 17  1  0
 17 18  2  0
 18 19  1  0
 18 20  1  0
 15 21  1  0
 20 21  2  0
 21 22  1  0
  7 23  1  0
  4 24  1  0
 23 24  1  0
M  END
