piperidine-amides-2018-covalent
     RDKit          3D

 22 23  0  0  0  0  0  0  0  0999 V2000
    7.0900   -3.2620   19.1880 C   0  0  0  0  0  0  0  0  0  0  0  0
    6.3370   -4.0090   20.2310 C   0  0  0  0  0  0  0  0  0  0  0  0
    5.2910   -4.5510   19.8850 O   0  0  0  0  0  0  0  0  0  0  0  0
    6.8400   -4.1140   21.5300 N   0  0  0  0  0  0  0  0  0  0  0  0
    6.5530   -5.2480   22.3680 C   0  0  0  0  0  0  0  0  0  0  0  0
    5.8950   -4.7960   23.6530 C   0  0  0  0  0  0  0  0  0  0  0  0
    6.0940   -3.2860   23.8650 C   0  0  0  0  0  0  0  0  0  0  0  0
    5.7200   -2.9560   25.2570 C   0  0  0  0  0  0  0  0  0  0  0  0
    4.5240   -3.0100   25.5810 O   0  0  0  0  0  0  0  0  0  0  0  0
    6.6860   -2.5640   26.2120 N   0  0  0  0  0  0  0  0  0  0  0  0
    6.4310   -2.9390   27.5830 C   0  0  0  0  0  0  0  0  0  0  0  0
    5.6160   -4.2000   27.4850 C   0  0  0  0  0  0  0  0  0  0  0  0
    4.3170   -4.4900   27.7880 C   0  0  0  0  0  0  0  0  0  0  0  0
    3.8580   -5.7560   27.5810 C   0  0  0  0  0  0  0  0  0  0  0  0
    5.2020   -6.6150   26.9560 S   0  0  0  0  0  0  0  0  0  0  0  0
    6.3570   -5.3700   26.9520 C   0  0  0  0  0  0  0  0  0  0  0  0
    8.0530   -5.2930   26.4810 S   0  0  0  0  0  0  0  0  0  0  0  0
    8.9850   -5.7480   27.8880 C   0  0  0  0  0  0  0  0  0  0  0  0
    8.4050   -6.0410   25.2640 O   0  0  0  0  0  0  0  0  0  0  0  0
    8.3390   -3.8370   26.2060 O   0  0  0  0  0  0  0  0  0  0  0  0
    7.4620   -2.8370   23.4880 C   0  0  0  0  0  0  0  0  0  0  0  0
    7.7320   -3.0860   22.0380 C   0  0  0  0  0  0  0  0  0  0  0  0
  1  2  1  0
  2  3  2  0
  2  4  1  0
  4  5  1  0
  5  6  1  0
  6  7  1  0
  7  8  1  0
  8  9  2  0
  8 10  1  0
 10 11  1  0
 11 12  1  0
 12 13  1  0
 13 14  2  0
 14 15  1  0
 12 16  2  0
 15 16  1  0
 16 17  1  0
 17 18  1  0
 17 19  2  0
 17 20  2  0
  7 21  1  0
  4 22  1  0
 21 22  1  0
M  END
