piperidine-amides-4230-covalent
     RDKit          3D

 27 29  0  0  0  0  0  0  0  0999 V2000
    7.1990   -3.2760   19.1510 C   0  0  0  0  0  0  0  0  0  0  0  0
    6.3910   -3.9810   20.1550 C   0  0  0  0  0  0  0  0  0  0  0  0
    5.2570   -4.3930   19.8150 O   0  0  0  0  0  0  0  0  0  0  0  0
    6.9200   -4.2390   21.4310 N   0  0  0  0  0  0  0  0  0  0  0  0
    7.6630   -3.1940   22.0460 C   0  0  0  0  0  0  0  0  0  0  0  0
    7.1640   -2.7710   23.3390 C   0  0  0  0  0  0  0  0  0  0  0  0
    6.5090   -3.8120   24.1440 C   0  0  0  0  0  0  0  0  0  0  0  0
    5.7150   -3.1680   25.2210 C   0  0  0  0  0  0  0  0  0  0  0  0
    4.5070   -2.9330   25.0340 O   0  0  0  0  0  0  0  0  0  0  0  0
    6.2870   -2.8250   26.4500 N   0  0  0  0  0  0  0  0  0  0  0  0
    5.6670   -3.0090   27.6850 C   0  0  1  0  0  0  0  0  0  0  0  0
    5.5440   -4.3870   28.1590 C   0  0  0  0  0  0  0  0  0  0  0  0
    4.2090   -4.9250   27.7240 C   0  0  0  0  0  0  0  0  0  0  0  0
    3.7780   -6.1810   27.9870 C   0  0  0  0  0  0  0  0  0  0  0  0
    4.6950   -7.1340   28.7770 C   0  0  0  0  0  0  0  0  0  0  0  0
    6.0580   -6.6210   29.2370 C   0  0  0  0  0  0  0  0  0  0  0  0
    6.5010   -5.1650   28.9050 C   0  0  0  0  0  0  0  0  0  0  0  0
    6.2580   -1.9630   28.5770 C   0  0  0  0  0  0  0  0  0  0  0  0
    7.2440   -0.9850   28.2220 N   0  0  0  0  0  0  0  0  0  0  0  0
    7.5400   -0.1680   29.3410 O   0  0  0  0  0  0  0  0  0  0  0  0
    6.7350   -0.6110   30.4130 C   0  0  0  0  0  0  0  0  0  0  0  0
    6.8080    0.0760   31.7910 C   0  0  0  0  0  0  0  0  0  0  0  0
    5.4270   -0.0010   32.3520 C   0  0  0  0  0  0  0  0  0  0  0  0
    4.4440   -0.4290   31.4640 C   0  0  0  0  0  0  0  0  0  0  0  0
    5.9690   -1.7090   29.8750 N   0  0  0  0  0  0  0  0  0  0  0  0
    5.7260   -4.8440   23.4060 C   0  0  0  0  0  0  0  0  0  0  0  0
    6.4340   -5.3500   22.1860 C   0  0  0  0  0  0  0  0  0  0  0  0
  1  2  1  0
  2  3  2  0
  2  4  1  0
  4  5  1  0
  5  6  1  0
  6  7  1  0
  7  8  1  0
  8  9  2  0
  8 10  1  0
 11 10  1  6
 11 12  1  0
 12 13  2  0
 13 14  1  0
 14 15  2  0
 15 16  1  0
 12 17  1  0
 16 17  2  0
 11 18  1  0
 18 19  2  0
 19 20  1  0
 20 21  1  0
 21 22  1  0
 22 23  1  0
 23 24  1  0
 18 25  1  0
 21 25  2  0
  7 26  1  0
  4 27  1  0
 26 27  1  0
M  END
