piperidine-amides-27273-covalent
     RDKit          3D

 25 26  0  0  0  0  0  0  0  0999 V2000
    7.0700   -3.2780   19.2220 C   0  0  0  0  0  0  0  0  0  0  0  0
    6.3540   -4.0500   20.2430 C   0  0  0  0  0  0  0  0  0  0  0  0
    5.2740   -4.5850   19.8890 O   0  0  0  0  0  0  0  0  0  0  0  0
    6.8900   -4.2040   21.5220 N   0  0  0  0  0  0  0  0  0  0  0  0
    6.5690   -5.3590   22.3260 C   0  0  0  0  0  0  0  0  0  0  0  0
    5.6900   -4.8780   23.4420 C   0  0  0  0  0  0  0  0  0  0  0  0
    5.8890   -3.3980   23.6280 C   0  0  0  0  0  0  0  0  0  0  0  0
    5.4620   -2.9280   24.9670 C   0  0  0  0  0  0  0  0  0  0  0  0
    4.2330   -2.8440   25.1620 O   0  0  0  0  0  0  0  0  0  0  0  0
    6.3310   -2.5350   26.0140 N   0  0  0  0  0  0  0  0  0  0  0  0
    6.7990   -1.1880   26.0300 C   0  0  0  0  0  0  0  0  0  0  0  0
    6.1340   -3.1390   27.2930 C   0  0  0  0  0  0  0  0  0  0  0  0
    4.7860   -3.2830   27.5300 C   0  0  0  0  0  0  0  0  0  0  0  0
    4.0760   -4.2540   26.8780 C   0  0  0  0  0  0  0  0  0  0  0  0
    3.7410   -4.8040   27.9860 N   0  0  0  0  0  0  0  0  0  0  0  0
    4.0610   -6.0730   28.1680 C   0  0  0  0  0  0  0  0  0  0  0  0
    3.2000   -6.8740   28.8870 O   0  0  0  0  0  0  0  0  0  0  0  0
    5.2350   -6.6210   27.6560 O   0  0  0  0  0  0  0  0  0  0  0  0
    6.4230   -5.8640   27.5480 C   0  0  0  0  0  0  0  0  0  0  0  0
    6.7980   -5.0300   28.5810 C   0  0  0  0  0  0  0  0  0  0  0  0
    7.6240   -6.0610   28.4550 C   0  0  0  0  0  0  0  0  0  0  0  0
    6.9180   -5.6190   26.1540 C   0  0  0  0  0  0  0  0  0  0  0  0
    4.2540   -3.7080   28.7880 C   0  0  0  0  0  0  0  0  0  0  0  0
    7.3250   -3.0510   23.4520 C   0  0  0  0  0  0  0  0  0  0  0  0
    7.7030   -3.1540   22.1420 C   0  0  0  0  0  0  0  0  0  0  0  0
  1  2  1  0
  2  3  2  0
  2  4  1  0
  4  5  1  0
  5  6  1  0
  6  7  1  0
  7  8  1  0
  8  9  2  0
  8 10  1  0
 10 11  1  0
 10 12  1  0
 12 13  1  0
 13 14  1  0
 14 15  1  0
 15 16  1  0
 16 17  2  0
 16 18  1  0
 19 18  1  0
 19 20  1  0
 19 21  1  0
 19 22  1  0
 13 23  1  0
 15 23  1  0
  7 24  1  0
  4 25  1  0
 24 25  1  0
M  END
