piperidine-amides-259-covalent
     RDKit          3D

 19 20  0  0  0  0  0  0  0  0999 V2000
    7.1520   -3.3290   19.4310 C   0  0  0  0  0  0  0  0  0  0  0  0
    6.3860   -4.0950   20.3870 C   0  0  0  0  0  0  0  0  0  0  0  0
    5.3930   -4.7780   19.9650 O   0  0  0  0  0  0  0  0  0  0  0  0
    6.7310   -4.1430   21.7510 N   0  0  0  0  0  0  0  0  0  0  0  0
    7.7120   -3.1050   22.2020 C   0  0  0  0  0  0  0  0  0  0  0  0
    7.5460   -3.0830   23.7750 C   0  0  0  0  0  0  0  0  0  0  0  0
    6.2120   -3.7230   24.0170 C   0  0  0  0  0  0  0  0  0  0  0  0
    5.4420   -3.3250   25.3560 C   0  0  0  0  0  0  0  0  0  0  0  0
    4.3850   -3.9360   25.3910 O   0  0  0  0  0  0  0  0  0  0  0  0
    6.0670   -2.4730   26.0760 N   0  0  0  0  0  0  0  0  0  0  0  0
    6.5730   -1.5640   26.9600 C   0  0  2  0  0  0  0  0  0  0  0  0
    6.7540   -1.5470   28.3390 C   0  0  0  0  0  0  0  0  0  0  0  0
    6.7210   -0.3110   29.0480 C   0  0  0  0  0  0  0  0  0  0  0  0
    6.3600    0.9340   28.3340 C   0  0  0  0  0  0  0  0  0  0  0  0
    5.1060    0.2760   27.7600 C   0  0  0  0  0  0  0  0  0  0  0  0
    5.8810   -0.2230   26.7150 C   0  0  2  0  0  0  0  0  0  0  0  0
    5.2770   -0.2910   25.6220 O   0  0  0  0  0  0  0  0  0  0  0  0
    6.2540   -5.2190   23.8180 C   0  0  0  0  0  0  0  0  0  0  0  0
    6.7150   -5.4530   22.3840 C   0  0  0  0  0  0  0  0  0  0  0  0
  1  2  1  0
  2  3  2  0
  2  4  1  0
  4  5  1  0
  5  6  1  0
  6  7  1  0
  7  8  1  0
  8  9  2  0
  8 10  1  0
 11 10  1  1
 11 12  1  0
 12 13  1  0
 13 14  1  0
 14 15  1  0
 11 16  1  0
 15 16  1  0
 16 17  1  6
  7 18  1  0
  4 19  1  0
 18 19  1  0
M  END
