piperidine-amides-34332-covalent
     RDKit          3D

 31 34  0  0  0  0  0  0  0  0999 V2000
    7.0530   -3.3350   19.4030 C   0  0  0  0  0  0  0  0  0  0  0  0
    6.3930   -4.2210   20.3740 C   0  0  0  0  0  0  0  0  0  0  0  0
    5.4230   -4.9240   20.0040 O   0  0  0  0  0  0  0  0  0  0  0  0
    6.8600   -4.3200   21.6990 N   0  0  0  0  0  0  0  0  0  0  0  0
    7.7520   -3.2760   22.2010 C   0  0  0  0  0  0  0  0  0  0  0  0
    7.4260   -3.0390   23.6770 C   0  0  0  0  0  0  0  0  0  0  0  0
    6.1150   -3.7470   23.8580 C   0  0  0  0  0  0  0  0  0  0  0  0
    5.4840   -3.4340   25.1580 C   0  0  0  0  0  0  0  0  0  0  0  0
    4.4000   -2.8260   25.1280 O   0  0  0  0  0  0  0  0  0  0  0  0
    6.0490   -3.8000   26.3960 N   0  0  0  0  0  0  0  0  0  0  0  0
    6.4660   -2.7420   27.2360 C   0  0  0  0  0  0  0  0  0  0  0  0
    6.7520   -3.3680   28.5830 C   0  0  0  0  0  0  0  0  0  0  0  0
    5.6950   -3.8820   29.2100 C   0  0  0  0  0  0  0  0  0  0  0  0
    5.0070   -2.9080   29.8890 C   0  0  0  0  0  0  0  0  0  0  0  0
    3.9110   -3.1650   30.7090 N   0  0  0  0  0  0  0  0  0  0  0  0
    3.6080   -1.9250   31.1490 C   0  0  0  0  0  0  0  0  0  0  0  0
    2.5490   -1.7850   32.0190 C   0  0  0  0  0  0  0  0  0  0  0  0
    2.8080   -1.1920   33.3940 C   0  0  0  0  0  0  0  0  0  0  0  0
    3.3100   -2.5620   33.6600 C   0  0  0  0  0  0  0  0  0  0  0  0
    3.8800   -3.0290   34.9950 C   0  0  0  0  0  0  0  0  0  0  0  0
    3.7600   -1.7610   35.8270 C   0  0  0  0  0  0  0  0  0  0  0  0
    3.2590   -0.4710   35.4880 C   0  0  0  0  0  0  0  0  0  0  0  0
    2.7900   -0.2160   34.2660 C   0  0  0  0  0  0  0  0  0  0  0  0
    2.3490    0.9930   34.0300 O   0  0  0  0  0  0  0  0  0  0  0  0
    3.3560    1.8890   33.7660 C   0  0  0  0  0  0  0  0  0  0  0  0
    4.4900   -0.9140   30.6080 N   0  0  0  0  0  0  0  0  0  0  0  0
    5.3420   -1.5760   29.8320 O   0  0  0  0  0  0  0  0  0  0  0  0
    4.9190   -4.7110   28.4960 C   0  0  0  0  0  0  0  0  0  0  0  0
    5.4210   -4.9130   27.0620 C   0  0  0  0  0  0  0  0  0  0  0  0
    6.1820   -5.2180   23.6550 C   0  0  0  0  0  0  0  0  0  0  0  0
    6.7240   -5.5560   22.4470 C   0  0  0  0  0  0  0  0  0  0  0  0
  1  2  1  0
  2  3  2  0
  2  4  1  0
  4  5  1  0
  5  6  1  0
  6  7  1  0
  7  8  1  0
  8  9  2  0
  8 10  1  0
 10 11  1  0
 11 12  1  0
 12 13  1  0
 13 14  1  0
 14 15  2  0
 15 16  1  0
 16 17  1  0
 17 18  1  0
 18 19  2  0
 19 20  1  0
 20 21  2  0
 21 22  1  0
 18 23  1  0
 22 23  2  0
 23 24  1  0
 24 25  1  0
 16 26  2  0
 14 27  1  0
 26 27  1  0
 13 28  1  0
 10 29  1  0
 28 29  1  0
  7 30  1  0
  4 31  1  0
 30 31  1  0
M  END
