piperidine-amides-8936-covalent
     RDKit          3D

 22 23  0  0  0  0  0  0  0  0999 V2000
    7.0980   -3.3030   19.2760 C   0  0  0  0  0  0  0  0  0  0  0  0
    6.3140   -4.0270   20.2800 C   0  0  0  0  0  0  0  0  0  0  0  0
    5.2920   -4.6280   19.9160 O   0  0  0  0  0  0  0  0  0  0  0  0
    6.7220   -4.0890   21.6250 N   0  0  0  0  0  0  0  0  0  0  0  0
    7.6950   -3.1590   22.1670 C   0  0  0  0  0  0  0  0  0  0  0  0
    7.3800   -3.0000   23.6260 C   0  0  0  0  0  0  0  0  0  0  0  0
    6.0510   -3.5960   23.9540 C   0  0  0  0  0  0  0  0  0  0  0  0
    5.6050   -3.3300   25.3460 C   0  0  0  0  0  0  0  0  0  0  0  0
    4.3800   -3.1270   25.5810 O   0  0  0  0  0  0  0  0  0  0  0  0
    6.4770   -3.2770   26.4600 N   0  0  0  0  0  0  0  0  0  0  0  0
    6.2000   -4.0320   27.7120 C   0  0  0  0  0  0  0  0  0  0  0  0
    5.9730   -5.4720   27.4040 C   0  0  0  0  0  0  0  0  0  0  0  0
    5.0270   -5.9710   28.2130 N   0  0  0  0  0  0  0  0  0  0  0  0
    3.6380   -5.9620   27.9550 C   0  0  0  0  0  0  0  0  0  0  0  0
    2.7210   -6.8410   28.7700 C   0  0  0  0  0  0  0  0  0  0  0  0
    0.8300   -6.8700   28.4640 Br  0  0  0  0  0  0  0  0  0  0  0  0
    3.3700   -7.6990   29.8410 C   0  0  0  0  0  0  0  0  0  0  0  0
    4.8030   -7.3980   30.0870 C   0  0  0  0  0  0  0  0  0  0  0  0
    5.4610   -6.4260   29.3970 C   0  0  0  0  0  0  0  0  0  0  0  0
    6.5220   -5.9840   29.9370 O   0  0  0  0  0  0  0  0  0  0  0  0
    6.0210   -5.0800   23.6830 C   0  0  0  0  0  0  0  0  0  0  0  0
    6.6130   -5.3650   22.3140 C   0  0  0  0  0  0  0  0  0  0  0  0
  1  2  1  0
  2  3  2  0
  2  4  1  0
  4  5  1  0
  5  6  1  0
  6  7  1  0
  7  8  1  0
  8  9  2  0
  8 10  1  0
 10 11  1  0
 11 12  1  0
 12 13  1  0
 13 14  1  0
 14 15  2  0
 15 16  1  0
 15 17  1  0
 17 18  2  0
 13 19  1  0
 18 19  1  0
 19 20  2  0
  7 21  1  0
  4 22  1  0
 21 22  1  0
M  END
