piperidine-amides-10792-covalent
     RDKit          3D

 22 24  0  0  0  0  0  0  0  0999 V2000
    7.1200   -3.2970   19.2580 C   0  0  0  0  0  0  0  0  0  0  0  0
    6.3480   -4.0080   20.2710 C   0  0  0  0  0  0  0  0  0  0  0  0
    5.3200   -4.6150   19.9230 O   0  0  0  0  0  0  0  0  0  0  0  0
    6.7760   -4.0610   21.6110 N   0  0  0  0  0  0  0  0  0  0  0  0
    7.7340   -3.1000   22.1400 C   0  0  0  0  0  0  0  0  0  0  0  0
    7.4450   -2.9490   23.6110 C   0  0  0  0  0  0  0  0  0  0  0  0
    6.1170   -3.5620   23.9280 C   0  0  0  0  0  0  0  0  0  0  0  0
    5.6310   -3.3380   25.3120 C   0  0  0  0  0  0  0  0  0  0  0  0
    4.5870   -3.9470   25.6850 O   0  0  0  0  0  0  0  0  0  0  0  0
    6.2000   -2.4720   26.2730 N   0  0  0  0  0  0  0  0  0  0  0  0
    5.2920   -1.8390   27.2680 C   0  0  0  0  0  0  0  0  0  0  0  0
    6.0030   -1.0680   28.3090 C   0  0  0  0  0  0  0  0  0  0  0  0
    7.1030   -1.5700   29.1030 C   0  0  0  0  0  0  0  0  0  0  0  0
    7.7310   -0.6800   30.1380 C   0  0  0  0  0  0  0  0  0  0  0  0
    7.2050    0.7410   30.3460 C   0  0  0  0  0  0  0  0  0  0  0  0
    6.0780    1.2560   29.5340 N   0  0  0  0  0  0  0  0  0  0  0  0
    5.5470    0.3200   28.5640 C   0  0  0  0  0  0  0  0  0  0  0  0
    4.4610   -2.9600   28.0350 C   0  0  0  0  0  0  0  0  0  0  0  0
    3.2200   -2.5370   27.6400 C   0  0  0  0  0  0  0  0  0  0  0  0
    3.9400   -1.4810   26.9120 C   0  0  0  0  0  0  0  0  0  0  0  0
    6.0270   -5.0360   23.6440 C   0  0  0  0  0  0  0  0  0  0  0  0
    6.6740   -5.3270   22.3120 C   0  0  0  0  0  0  0  0  0  0  0  0
  1  2  1  0
  2  3  2  0
  2  4  1  0
  4  5  1  0
  5  6  1  0
  6  7  1  0
  7  8  1  0
  8  9  2  0
  8 10  1  0
 11 10  1  0
 11 12  1  0
 12 13  2  0
 13 14  1  0
 14 15  2  0
 15 16  1  0
 12 17  1  0
 16 17  2  0
 11 18  1  0
 18 19  1  0
 11 20  1  0
 19 20  1  0
  7 21  1  0
  4 22  1  0
 21 22  1  0
M  END
