piperidine-amides-28990-covalent
     RDKit          3D

 26 28  0  0  0  0  0  0  0  0999 V2000
    7.1290   -3.3420   19.3000 C   0  0  0  0  0  0  0  0  0  0  0  0
    6.3960   -4.1390   20.2690 C   0  0  0  0  0  0  0  0  0  0  0  0
    5.3130   -4.6400   19.9230 O   0  0  0  0  0  0  0  0  0  0  0  0
    6.9650   -4.3780   21.5410 N   0  0  0  0  0  0  0  0  0  0  0  0
    7.6950   -3.3150   22.1660 C   0  0  0  0  0  0  0  0  0  0  0  0
    6.8300   -2.7090   23.2130 C   0  0  0  0  0  0  0  0  0  0  0  0
    6.4890   -3.8280   24.1610 C   0  0  0  0  0  0  0  0  0  0  0  0
    5.5980   -3.3120   25.2300 C   0  0  0  0  0  0  0  0  0  0  0  0
    4.4070   -3.2130   24.9450 O   0  0  0  0  0  0  0  0  0  0  0  0
    6.1410   -2.9720   26.4490 N   0  0  0  0  0  0  0  0  0  0  0  0
    6.7390   -1.6820   26.5490 C   0  0  0  0  0  0  0  0  0  0  0  0
    6.1230   -0.6360   26.8540 C   0  0  0  0  0  0  0  0  0  0  0  0
    6.8490   -1.1170   27.9840 C   0  0  0  0  0  0  0  0  0  0  0  0
    5.4190   -3.6240   27.5240 C   0  0  0  0  0  0  0  0  0  0  0  0
    5.9980   -3.4310   28.8370 C   0  0  0  0  0  0  0  0  0  0  0  0
    4.8000   -3.0020   29.1650 N   0  0  0  0  0  0  0  0  0  0  0  0
    4.6010   -1.7770   29.6660 C   0  0  0  0  0  0  0  0  0  0  0  0
    4.4320   -0.7980   28.8920 O   0  0  0  0  0  0  0  0  0  0  0  0
    4.6190   -1.8000   30.9770 O   0  0  0  0  0  0  0  0  0  0  0  0
    4.7160   -0.5290   31.5400 C   0  0  0  0  0  0  0  0  0  0  0  0
    4.3680   -0.5500   33.0020 C   0  0  0  0  0  0  0  0  0  0  0  0
    3.9440    0.3750   30.8490 C   0  0  0  0  0  0  0  0  0  0  0  0
    6.0270   -0.1170   31.3180 C   0  0  0  0  0  0  0  0  0  0  0  0
    4.1160   -3.2060   27.8970 C   0  0  0  0  0  0  0  0  0  0  0  0
    5.8060   -4.9900   23.5170 C   0  0  0  0  0  0  0  0  0  0  0  0
    6.5570   -5.5010   22.3300 C   0  0  0  0  0  0  0  0  0  0  0  0
  1  2  1  0
  2  3  2  0
  2  4  1  0
  4  5  1  0
  5  6  1  0
  6  7  1  0
  7  8  1  0
  8  9  2  0
  8 10  1  0
 10 11  1  0
 11 12  1  0
 11 13  1  0
 12 13  1  0
 10 14  1  0
 14 15  1  0
 15 16  1  0
 16 17  1  0
 17 18  2  0
 17 19  1  0
 20 19  1  0
 20 21  1  0
 20 22  1  0
 20 23  1  0
 14 24  1  0
 16 24  1  0
  7 25  1  0
  4 26  1  0
 25 26  1  0
M  END
