piperidine-amides-28125-covalent
     RDKit          3D

 25 27  0  0  0  0  0  0  0  0999 V2000
    7.0550   -3.3360   19.3660 C   0  0  0  0  0  0  0  0  0  0  0  0
    6.3790   -4.1830   20.3780 C   0  0  0  0  0  0  0  0  0  0  0  0
    5.3800   -4.8190   19.9760 O   0  0  0  0  0  0  0  0  0  0  0  0
    6.8560   -4.3040   21.7000 N   0  0  0  0  0  0  0  0  0  0  0  0
    7.6320   -3.2510   22.2910 C   0  0  0  0  0  0  0  0  0  0  0  0
    7.2490   -2.9860   23.6690 C   0  0  0  0  0  0  0  0  0  0  0  0
    6.0250   -3.7200   24.0330 C   0  0  0  0  0  0  0  0  0  0  0  0
    5.4850   -3.3740   25.3820 C   0  0  0  0  0  0  0  0  0  0  0  0
    4.2980   -3.0120   25.4190 O   0  0  0  0  0  0  0  0  0  0  0  0
    6.2150   -3.4250   26.5920 N   0  0  0  0  0  0  0  0  0  0  0  0
    6.3090   -2.1810   27.4150 C   0  0  0  0  0  0  0  0  0  0  0  0
    6.0670   -0.9410   26.9220 N   0  0  0  0  0  0  0  0  0  0  0  0
    6.1590    0.1430   27.6990 C   0  0  0  0  0  0  0  0  0  0  0  0
    5.9710    1.5550   27.4820 C   0  0  0  0  0  0  0  0  0  0  0  0
    6.1410    2.4510   28.5010 C   0  0  0  0  0  0  0  0  0  0  0  0
    6.4970    2.0330   29.7750 C   0  0  0  0  0  0  0  0  0  0  0  0
    6.6860    0.6890   30.0250 C   0  0  0  0  0  0  0  0  0  0  0  0
    6.5350   -0.2690   29.0540 C   0  0  0  0  0  0  0  0  0  0  0  0
    6.7170   -1.9740   29.1290 S   0  0  0  0  0  0  0  0  0  0  0  0
    6.2640   -4.7370   27.3380 C   0  0  1  0  0  0  0  0  0  0  0  0
    6.8640   -4.6740   28.5980 C   0  0  0  0  0  0  0  0  0  0  0  0
    5.0510   -5.2660   27.6270 C   0  0  0  0  0  0  0  0  0  0  0  0
    5.0570   -6.6930   28.1260 C   0  0  0  0  0  0  0  0  0  0  0  0
    6.1830   -5.2260   23.7840 C   0  0  0  0  0  0  0  0  0  0  0  0
    6.6630   -5.5220   22.4720 C   0  0  0  0  0  0  0  0  0  0  0  0
  1  2  1  0
  2  3  2  0
  2  4  1  0
  4  5  1  0
  5  6  1  0
  6  7  1  0
  7  8  1  0
  8  9  2  0
  8 10  1  0
 10 11  1  0
 11 12  2  0
 12 13  1  0
 13 14  2  0
 14 15  1  0
 15 16  2  0
 16 17  1  0
 13 18  1  0
 17 18  2  0
 11 19  1  0
 18 19  1  0
 10 20  1  0
 20 21  1  1
 20 22  1  0
 22 23  1  0
  7 24  1  0
  4 25  1  0
 24 25  1  0
M  END
