piperidine-amides-8835-covalent
     RDKit          3D

 22 23  0  0  0  0  0  0  0  0999 V2000
    7.0440   -3.2770   19.2410 C   0  0  0  0  0  0  0  0  0  0  0  0
    6.2910   -4.0530   20.2340 C   0  0  0  0  0  0  0  0  0  0  0  0
    5.2460   -4.6160   19.8830 O   0  0  0  0  0  0  0  0  0  0  0  0
    6.7610   -4.1790   21.5570 N   0  0  0  0  0  0  0  0  0  0  0  0
    7.5970   -3.1620   22.0960 C   0  0  0  0  0  0  0  0  0  0  0  0
    7.3530   -3.1640   23.5500 C   0  0  0  0  0  0  0  0  0  0  0  0
    5.9320   -3.5790   23.7210 C   0  0  0  0  0  0  0  0  0  0  0  0
    5.5300   -3.3450   25.1430 C   0  0  0  0  0  0  0  0  0  0  0  0
    4.3340   -3.1720   25.3560 O   0  0  0  0  0  0  0  0  0  0  0  0
    6.5290   -3.3310   26.1120 N   0  0  0  0  0  0  0  0  0  0  0  0
    6.2950   -3.8080   27.4320 C   0  0  0  0  0  0  0  0  0  0  0  0
    6.4520   -5.1900   27.5860 C   0  0  1  0  0  0  0  0  0  0  0  0
    7.5430   -5.7780   27.0300 C   0  0  0  0  0  0  0  0  0  0  0  0
    6.5890   -5.6730   28.9490 C   0  0  0  0  0  0  0  0  0  0  0  0
    5.4200   -5.8900   29.8540 C   0  0  0  0  0  0  0  0  0  0  0  0
    5.4680   -7.1760   30.6670 C   0  0  0  0  0  0  0  0  0  0  0  0
    4.3690   -7.4510   31.5740 C   0  0  0  0  0  0  0  0  0  0  0  0
    3.2750   -6.4370   31.6310 C   0  0  0  0  0  0  0  0  0  0  0  0
    3.3810   -5.1600   30.7200 C   0  0  0  0  0  0  0  0  0  0  0  0
    4.4390   -4.9540   29.8850 N   0  0  0  0  0  0  0  0  0  0  0  0
    5.7970   -5.0610   23.4370 C   0  0  0  0  0  0  0  0  0  0  0  0
    6.5590   -5.3920   22.3170 C   0  0  0  0  0  0  0  0  0  0  0  0
  1  2  1  0
  2  3  2  0
  2  4  1  0
  4  5  1  0
  5  6  1  0
  6  7  1  0
  7  8  1  0
  8  9  2  0
  8 10  1  0
 10 11  1  0
 11 12  1  0
 12 13  1  6
 12 14  1  0
 14 15  1  0
 15 16  2  0
 16 17  1  0
 17 18  2  0
 18 19  1  0
 15 20  1  0
 19 20  2  0
  7 21  1  0
  4 22  1  0
 21 22  1  0
M  END
