piperidine-amides-13553-covalent
     RDKit          3D

 30 34  0  0  0  0  0  0  0  0999 V2000
    7.1750   -3.2780   19.1860 C   0  0  0  0  0  0  0  0  0  0  0  0
    6.4190   -4.0580   20.1990 C   0  0  0  0  0  0  0  0  0  0  0  0
    5.3190   -4.5510   19.8940 O   0  0  0  0  0  0  0  0  0  0  0  0
    7.0160   -4.2640   21.4550 N   0  0  0  0  0  0  0  0  0  0  0  0
    7.8170   -3.2490   22.0860 C   0  0  0  0  0  0  0  0  0  0  0  0
    6.9090   -2.6420   23.1340 C   0  0  0  0  0  0  0  0  0  0  0  0
    6.5780   -3.7250   24.0980 C   0  0  0  0  0  0  0  0  0  0  0  0
    5.8410   -3.1740   25.2350 C   0  0  0  0  0  0  0  0  0  0  0  0
    4.6880   -2.8110   24.9900 O   0  0  0  0  0  0  0  0  0  0  0  0
    6.4560   -3.0760   26.4780 N   0  0  0  0  0  0  0  0  0  0  0  0
    5.9730   -3.5800   27.7090 C   0  0  2  0  0  0  0  0  0  0  0  0
    5.6460   -4.9280   27.7770 C   0  0  0  0  0  0  0  0  0  0  0  0
    4.6200   -5.4310   26.9500 C   0  0  0  0  0  0  0  0  0  0  0  0
    3.7660   -4.5700   26.2930 C   0  0  0  0  0  0  0  0  0  0  0  0
    2.6740   -5.0680   25.4080 C   0  0  0  0  0  0  0  0  0  0  0  0
    2.4450   -6.5610   25.1870 C   0  0  0  0  0  0  0  0  0  0  0  0
    3.4730   -7.3410   25.9920 C   0  0  0  0  0  0  0  0  0  0  0  0
    4.4610   -6.7850   26.7920 C   0  0  0  0  0  0  0  0  0  0  0  0
    4.8610   -2.7750   28.2800 C   0  0  1  0  0  0  0  0  0  0  0  0
    6.2280   -2.1440   28.5490 C   0  0  0  0  0  0  0  0  0  0  0  0
    6.2850   -0.7570   28.6980 C   0  0  2  0  0  0  0  0  0  0  0  0
    5.9320   -1.4720   30.0220 C   0  0  0  0  0  0  0  0  0  0  0  0
    4.4780   -1.7720   30.3120 C   0  0  1  0  0  0  0  0  0  0  0  0
    3.5190   -0.7980   29.6320 C   0  0  0  0  0  0  0  0  0  0  0  0
    3.9620   -0.5380   28.2260 C   0  0  1  0  0  0  0  0  0  0  0  0
    5.1910    0.0610   27.9970 C   0  0  0  0  0  0  0  0  0  0  0  0
    3.9700   -1.8400   27.4940 C   0  0  0  0  0  0  0  0  0  0  0  0
    4.2970   -3.0850   29.6510 C   0  0  0  0  0  0  0  0  0  0  0  0
    5.8180   -4.8780   23.4330 C   0  0  0  0  0  0  0  0  0  0  0  0
    6.5200   -5.3580   22.2300 C   0  0  0  0  0  0  0  0  0  0  0  0
  1  2  1  0
  2  3  2  0
  2  4  1  0
  4  5  1  0
  5  6  1  0
  6  7  1  0
  7  8  1  0
  8  9  2  0
  8 10  1  0
 10 11  1  0
 11 12  1  6
 12 13  1  0
 13 14  2  0
 14 15  1  0
 15 16  2  0
 16 17  1  0
 13 18  1  0
 17 18  2  0
 11 19  1  0
 19 20  1  1
 21 20  1  6
 21 22  1  0
 23 22  1  6
 23 24  1  0
 25 24  1  1
 21 26  1  0
 25 26  1  0
 19 27  1  0
 25 27  1  0
 19 28  1  0
 23 28  1  0
  7 29  1  0
  4 30  1  0
 29 30  1  0
M  END
