piperidine-amides-24453-covalent
     RDKit          3D

 24 26  0  0  0  0  0  0  0  0999 V2000
    7.0230   -3.3530   19.4310 C   0  0  0  0  0  0  0  0  0  0  0  0
    6.3820   -4.2600   20.3970 C   0  0  0  0  0  0  0  0  0  0  0  0
    5.4220   -4.9660   20.0110 O   0  0  0  0  0  0  0  0  0  0  0  0
    6.8460   -4.3770   21.7290 N   0  0  0  0  0  0  0  0  0  0  0  0
    6.5620   -5.6080   22.4510 C   0  0  0  0  0  0  0  0  0  0  0  0
    6.0820   -5.2410   23.8750 C   0  0  0  0  0  0  0  0  0  0  0  0
    5.8850   -3.7470   23.8870 C   0  0  0  0  0  0  0  0  0  0  0  0
    5.1960   -3.2090   25.1080 C   0  0  0  0  0  0  0  0  0  0  0  0
    4.4270   -2.2560   24.9220 O   0  0  0  0  0  0  0  0  0  0  0  0
    5.3600   -3.7130   26.4270 N   0  0  0  0  0  0  0  0  0  0  0  0
    6.5030   -3.3230   27.1360 C   0  0  0  0  0  0  0  0  0  0  0  0
    6.6110   -4.4060   28.1740 C   0  0  0  0  0  0  0  0  0  0  0  0
    5.3550   -4.6420   28.4900 C   0  0  0  0  0  0  0  0  0  0  0  0
    4.5960   -3.8160   27.6920 C   0  0  1  0  0  0  0  0  0  0  0  0
    4.4030   -2.4870   28.0840 C   0  0  0  0  0  0  0  0  0  0  0  0
    5.2570   -1.8710   28.9010 C   0  0  0  0  0  0  0  0  0  0  0  0
    5.2130   -0.4710   29.4250 C   0  0  0  0  0  0  0  0  0  0  0  0
    3.9060    0.0060   28.7370 C   0  0  0  0  0  0  0  0  0  0  0  0
    2.8090   -0.5350   27.7890 C   0  0  0  0  0  0  0  0  0  0  0  0
    1.7110    0.0510   27.2860 F   0  0  0  0  0  0  0  0  0  0  0  0
    3.2990   -1.9010   27.5770 C   0  0  0  0  0  0  0  0  0  0  0  0
    2.4670   -2.6280   26.7360 F   0  0  0  0  0  0  0  0  0  0  0  0
    7.2050   -3.0790   23.6320 C   0  0  0  0  0  0  0  0  0  0  0  0
    7.5720   -3.2930   22.3320 C   0  0  0  0  0  0  0  0  0  0  0  0
  1  2  1  0
  2  3  2  0
  2  4  1  0
  4  5  1  0
  5  6  1  0
  6  7  1  0
  7  8  1  0
  8  9  2  0
  8 10  1  0
 10 11  1  0
 11 12  1  0
 12 13  1  0
 10 14  1  0
 13 14  1  0
 14 15  1  1
 15 16  2  0
 16 17  1  0
 17 18  2  0
 18 19  1  0
 19 20  1  0
 15 21  1  0
 19 21  2  0
 21 22  1  0
  7 23  1  0
  4 24  1  0
 23 24  1  0
M  END
