piperidine-amides-9977-covalent
     RDKit          3D

 26 28  0  0  0  0  0  0  0  0999 V2000
    7.0640   -3.3010   19.3070 C   0  0  0  0  0  0  0  0  0  0  0  0
    6.3710   -4.0990   20.3270 C   0  0  0  0  0  0  0  0  0  0  0  0
    5.3320   -4.6970   19.9420 O   0  0  0  0  0  0  0  0  0  0  0  0
    6.8700   -4.2110   21.6380 N   0  0  0  0  0  0  0  0  0  0  0  0
    6.6570   -5.4180   22.4160 C   0  0  0  0  0  0  0  0  0  0  0  0
    6.0370   -5.0590   23.7490 C   0  0  0  0  0  0  0  0  0  0  0  0
    5.9850   -3.5730   23.9790 C   0  0  0  0  0  0  0  0  0  0  0  0
    5.5560   -3.2630   25.3680 C   0  0  0  0  0  0  0  0  0  0  0  0
    4.3270   -3.2260   25.5890 O   0  0  0  0  0  0  0  0  0  0  0  0
    6.4400   -2.9930   26.4320 N   0  0  0  0  0  0  0  0  0  0  0  0
    6.2220   -3.4250   27.8060 C   0  0  2  0  0  0  0  0  0  0  0  0
    5.7560   -4.8560   27.9150 C   0  0  0  0  0  0  0  0  0  0  0  0
    4.9440   -5.5430   27.0380 C   0  0  0  0  0  0  0  0  0  0  0  0
    4.6070   -6.8460   27.3060 C   0  0  0  0  0  0  0  0  0  0  0  0
    5.0390   -7.5240   28.4220 C   0  0  0  0  0  0  0  0  0  0  0  0
    5.8470   -6.8380   29.2770 C   0  0  0  0  0  0  0  0  0  0  0  0
    6.1920   -5.5410   29.0250 C   0  0  0  0  0  0  0  0  0  0  0  0
    5.5850   -2.5490   28.6920 C   0  0  0  0  0  0  0  0  0  0  0  0
    4.2200   -2.6510   29.0610 N   0  0  0  0  0  0  0  0  0  0  0  0
    3.9890   -1.6340   29.9480 N   0  0  0  0  0  0  0  0  0  0  0  0
    5.1610   -0.9130   30.1360 C   0  0  0  0  0  0  0  0  0  0  0  0
    5.3770    0.2920   31.0290 C   0  0  0  0  0  0  0  0  0  0  0  0
    6.0920   -1.5000   29.3570 N   0  0  0  0  0  0  0  0  0  0  0  0
    7.4280   -1.0700   29.2540 C   0  0  0  0  0  0  0  0  0  0  0  0
    7.2700   -2.9080   23.6380 C   0  0  0  0  0  0  0  0  0  0  0  0
    7.6750   -3.1540   22.2020 C   0  0  0  0  0  0  0  0  0  0  0  0
  1  2  1  0
  2  3  2  0
  2  4  1  0
  4  5  1  0
  5  6  1  0
  6  7  1  0
  7  8  1  0
  8  9  2  0
  8 10  1  0
 11 10  1  6
 11 12  1  0
 12 13  2  0
 13 14  1  0
 14 15  2  0
 15 16  1  0
 12 17  1  0
 16 17  2  0
 11 18  1  0
 18 19  2  0
 19 20  1  0
 20 21  2  0
 21 22  1  0
 18 23  1  0
 21 23  1  0
 23 24  1  0
  7 25  1  0
  4 26  1  0
 25 26  1  0
M  END
