piperidine-amides-27154-covalent
     RDKit          3D

 25 26  0  0  0  0  0  0  0  0999 V2000
    7.1030   -3.3210   19.2990 C   0  0  0  0  0  0  0  0  0  0  0  0
    6.3490   -4.0860   20.2910 C   0  0  0  0  0  0  0  0  0  0  0  0
    5.2730   -4.6080   19.9020 O   0  0  0  0  0  0  0  0  0  0  0  0
    6.8510   -4.2640   21.5760 N   0  0  0  0  0  0  0  0  0  0  0  0
    6.5480   -5.4430   22.3300 C   0  0  0  0  0  0  0  0  0  0  0  0
    5.7080   -5.0250   23.5110 C   0  0  0  0  0  0  0  0  0  0  0  0
    5.9770   -3.6110   24.0240 C   0  0  0  0  0  0  0  0  0  0  0  0
    5.7400   -3.5690   25.4990 C   0  0  0  0  0  0  0  0  0  0  0  0
    4.5370   -3.6550   25.8330 O   0  0  0  0  0  0  0  0  0  0  0  0
    6.6870   -3.4120   26.5600 N   0  0  0  0  0  0  0  0  0  0  0  0
    6.1890   -2.7240   27.7360 C   0  0  2  0  0  0  0  0  0  0  0  0
    7.3180   -1.9650   28.4660 C   0  0  0  0  0  0  0  0  0  0  0  0
    8.4240   -2.5010   28.6680 O   0  0  0  0  0  0  0  0  0  0  0  0
    7.2040   -0.6510   28.9630 O   0  0  0  0  0  0  0  0  0  0  0  0
    7.5610   -0.4070   30.3060 C   0  0  0  0  0  0  0  0  0  0  0  0
    5.5740   -3.7950   28.6350 C   0  0  0  0  0  0  0  0  0  0  0  0
    6.4920   -4.8210   28.8190 C   0  0  0  0  0  0  0  0  0  0  0  0
    7.0610   -5.3120   27.6800 C   0  0  0  0  0  0  0  0  0  0  0  0
    7.6910   -4.3890   26.8960 C   0  0  1  0  0  0  0  0  0  0  0  0
    8.4170   -4.9810   25.7260 C   0  0  0  0  0  0  0  0  0  0  0  0
    9.2570   -5.9480   26.5690 C   0  0  0  0  0  0  0  0  0  0  0  0
    7.5850   -5.5070   24.8010 C   0  0  0  0  0  0  0  0  0  0  0  0
    9.1050   -4.1190   24.9550 C   0  0  0  0  0  0  0  0  0  0  0  0
    7.2660   -2.9650   23.6290 C   0  0  0  0  0  0  0  0  0  0  0  0
    7.6470   -3.2350   22.1870 C   0  0  0  0  0  0  0  0  0  0  0  0
  1  2  1  0
  2  3  2  0
  2  4  1  0
  4  5  1  0
  5  6  1  0
  6  7  1  0
  7  8  1  0
  8  9  2  0
  8 10  1  0
 10 11  1  0
 11 12  1  1
 12 13  2  0
 12 14  1  0
 14 15  1  0
 11 16  1  0
 16 17  1  0
 17 18  1  0
 10 19  1  0
 18 19  1  0
 19 20  1  6
 20 21  1  0
 20 22  1  0
 20 23  1  0
  7 24  1  0
  4 25  1  0
 24 25  1  0
M  END
