piperidine-amides-23536-covalent
     RDKit          3D

 21 22  0  0  0  0  0  0  0  0999 V2000
    7.0650   -3.3880   19.3720 C   0  0  0  0  0  0  0  0  0  0  0  0
    6.4320   -4.2530   20.3800 C   0  0  0  0  0  0  0  0  0  0  0  0
    5.4010   -4.8650   20.0000 O   0  0  0  0  0  0  0  0  0  0  0  0
    6.9980   -4.4320   21.6780 N   0  0  0  0  0  0  0  0  0  0  0  0
    6.5700   -5.5250   22.4700 C   0  0  0  0  0  0  0  0  0  0  0  0
    6.2670   -5.0990   23.8340 C   0  0  0  0  0  0  0  0  0  0  0  0
    5.8800   -3.6740   23.9290 C   0  0  0  0  0  0  0  0  0  0  0  0
    5.4750   -3.2470   25.3170 C   0  0  0  0  0  0  0  0  0  0  0  0
    4.2840   -2.9430   25.4980 O   0  0  0  0  0  0  0  0  0  0  0  0
    6.3450   -3.1760   26.4290 N   0  0  0  0  0  0  0  0  0  0  0  0
    6.6020   -4.2770   27.2920 C   0  0  0  0  0  0  0  0  0  0  0  0
    6.3480   -1.8700   27.1180 C   0  0  0  0  0  0  0  0  0  0  0  0
    6.6970   -1.7470   28.3570 N   0  0  0  0  0  0  0  0  0  0  0  0
    6.7030   -0.5320   29.0280 C   0  0  0  0  0  0  0  0  0  0  0  0
    7.1910   -0.4110   30.7200 Cl  0  0  0  0  0  0  0  0  0  0  0  0
    6.3090    0.5110   28.2760 N   0  0  0  0  0  0  0  0  0  0  0  0
    5.8680    0.9120   27.0170 C   0  0  0  0  0  0  0  0  0  0  0  0
    5.9110   -0.5350   26.3730 C   0  0  0  0  0  0  0  0  0  0  0  0
    5.4390   -0.6830   24.7200 Cl  0  0  0  0  0  0  0  0  0  0  0  0
    6.7830   -2.6640   23.3000 C   0  0  0  0  0  0  0  0  0  0  0  0
    7.7220   -3.3300   22.2820 C   0  0  0  0  0  0  0  0  0  0  0  0
  1  2  1  0
  2  3  2  0
  2  4  1  0
  4  5  1  0
  5  6  1  0
  6  7  1  0
  7  8  1  0
  8  9  2  0
  8 10  1  0
 10 11  1  0
 10 12  1  0
 12 13  2  0
 13 14  1  0
 14 15  1  0
 14 16  2  0
 16 17  1  0
 12 18  1  0
 17 18  2  0
 18 19  1  0
  7 20  1  0
  4 21  1  0
 20 21  1  0
M  END
