piperidine-amides-1379-covalent
     RDKit          3D

 22 23  0  0  0  0  0  0  0  0999 V2000
    7.1110   -3.2730   19.2370 C   0  0  0  0  0  0  0  0  0  0  0  0
    6.3450   -4.0600   20.2430 C   0  0  0  0  0  0  0  0  0  0  0  0
    5.2870   -4.6120   19.9040 O   0  0  0  0  0  0  0  0  0  0  0  0
    6.8710   -4.2000   21.5430 N   0  0  0  0  0  0  0  0  0  0  0  0
    7.6910   -3.2010   22.1810 C   0  0  0  0  0  0  0  0  0  0  0  0
    6.8780   -2.6380   23.3440 C   0  0  0  0  0  0  0  0  0  0  0  0
    6.5110   -3.7910   24.2190 C   0  0  0  0  0  0  0  0  0  0  0  0
    5.7230   -3.3690   25.4000 C   0  0  0  0  0  0  0  0  0  0  0  0
    4.5130   -3.2050   25.2080 O   0  0  0  0  0  0  0  0  0  0  0  0
    6.3360   -3.1720   26.6430 N   0  0  0  0  0  0  0  0  0  0  0  0
    6.1920   -3.9660   27.8150 C   0  0  2  0  0  0  0  0  0  0  0  0
    6.0190   -5.3370   27.8190 C   0  0  0  0  0  0  0  0  0  0  0  0
    5.0450   -3.3810   28.6340 C   0  0  0  0  0  0  0  0  0  0  0  0
    3.8500   -4.0510   28.7550 C   0  0  0  0  0  0  0  0  0  0  0  0
    2.6770   -3.5720   29.5290 C   0  0  0  0  0  0  0  0  0  0  0  0
    1.2040   -4.5290   29.6040 Cl  0  0  0  0  0  0  0  0  0  0  0  0
    2.7590   -2.2350   30.2660 C   0  0  0  0  0  0  0  0  0  0  0  0
    4.1390   -1.6200   30.0330 C   0  0  0  0  0  0  0  0  0  0  0  0
    5.1640   -2.1710   29.2780 C   0  0  0  0  0  0  0  0  0  0  0  0
    6.6710   -1.3110   29.1330 Cl  0  0  0  0  0  0  0  0  0  0  0  0
    5.7530   -4.8780   23.5280 C   0  0  0  0  0  0  0  0  0  0  0  0
    6.5160   -5.3670   22.3130 C   0  0  0  0  0  0  0  0  0  0  0  0
  1  2  1  0
  2  3  2  0
  2  4  1  0
  4  5  1  0
  5  6  1  0
  6  7  1  0
  7  8  1  0
  8  9  2  0
  8 10  1  0
 10 11  1  0
 11 12  1  6
 11 13  1  0
 13 14  2  0
 14 15  1  0
 15 16  1  0
 15 17  2  0
 17 18  1  0
 13 19  1  0
 18 19  2  0
 19 20  1  0
  7 21  1  0
  4 22  1  0
 21 22  1  0
M  END
