piperidine-amides-13190-covalent
     RDKit          3D

 19 20  0  0  0  0  0  0  0  0999 V2000
    7.0600   -3.2970   19.2330 C   0  0  0  0  0  0  0  0  0  0  0  0
    6.3460   -4.0990   20.2570 C   0  0  0  0  0  0  0  0  0  0  0  0
    5.2650   -4.5970   19.8960 O   0  0  0  0  0  0  0  0  0  0  0  0
    6.8720   -4.3410   21.5330 N   0  0  0  0  0  0  0  0  0  0  0  0
    7.6050   -3.3250   22.2140 C   0  0  0  0  0  0  0  0  0  0  0  0
    7.7060   -3.5460   23.6570 C   0  0  0  0  0  0  0  0  0  0  0  0
    6.5690   -4.2660   24.2870 C   0  0  0  0  0  0  0  0  0  0  0  0
    5.9260   -3.3610   25.2830 C   0  0  0  0  0  0  0  0  0  0  0  0
    4.7010   -3.4710   25.5000 O   0  0  0  0  0  0  0  0  0  0  0  0
    6.6970   -2.3820   25.9610 N   0  0  0  0  0  0  0  0  0  0  0  0
    6.3630   -1.8950   27.3150 C   0  0  0  0  0  0  0  0  0  0  0  0
    6.0210   -0.8270   28.2950 C   0  0  0  0  0  0  0  0  0  0  0  0
    5.8990    0.5000   27.9800 N   0  0  0  0  0  0  0  0  0  0  0  0
    6.1440    0.4660   26.7570 N   0  0  0  0  0  0  0  0  0  0  0  0
    6.1970    1.4890   25.7560 C   0  0  0  0  0  0  0  0  0  0  0  0
    6.4120   -0.8000   26.2950 C   0  0  0  0  0  0  0  0  0  0  0  0
    6.7760   -1.0280   24.5990 Cl  0  0  0  0  0  0  0  0  0  0  0  0
    5.5960   -4.8470   23.3090 C   0  0  0  0  0  0  0  0  0  0  0  0
    6.2780   -5.4040   22.2720 C   0  0  0  0  0  0  0  0  0  0  0  0
  1  2  1  0
  2  3  2  0
  2  4  1  0
  4  5  1  0
  5  6  1  0
  6  7  1  0
  7  8  1  0
  8  9  2  0
  8 10  1  0
 10 11  1  0
 11 12  1  0
 12 13  2  0
 13 14  1  0
 14 15  1  0
 11 16  2  0
 14 16  1  0
 16 17  1  0
  7 18  1  0
  4 19  1  0
 18 19  1  0
M  END
