piperidine-amides-29793-covalent
     RDKit          3D

 27 29  0  0  0  0  0  0  0  0999 V2000
    7.0890   -3.3150   19.3690 C   0  0  0  0  0  0  0  0  0  0  0  0
    6.3190   -4.0970   20.3300 C   0  0  0  0  0  0  0  0  0  0  0  0
    5.3270   -4.7190   19.9490 O   0  0  0  0  0  0  0  0  0  0  0  0
    6.7340   -4.1850   21.7090 N   0  0  0  0  0  0  0  0  0  0  0  0
    7.5520   -3.1580   22.3130 C   0  0  0  0  0  0  0  0  0  0  0  0
    7.1200   -2.8740   23.7350 C   0  0  0  0  0  0  0  0  0  0  0  0
    5.6880   -3.3670   23.9170 C   0  0  0  0  0  0  0  0  0  0  0  0
    5.0440   -2.8380   25.1860 C   0  0  0  0  0  0  0  0  0  0  0  0
    4.4520   -1.7530   25.2060 O   0  0  0  0  0  0  0  0  0  0  0  0
    5.0980   -3.5700   26.3990 N   0  0  0  0  0  0  0  0  0  0  0  0
    6.1710   -4.3770   26.4120 C   0  0  0  0  0  0  0  0  0  0  0  0
    6.0410   -5.3320   27.5400 C   0  0  0  0  0  0  0  0  0  0  0  0
    6.0520   -4.8840   28.8340 C   0  0  0  0  0  0  0  0  0  0  0  0
    5.6610   -5.8730   29.7370 C   0  0  0  0  0  0  0  0  0  0  0  0
    4.2780   -5.9300   30.0430 N   0  0  0  0  0  0  0  0  0  0  0  0
    3.6500   -5.0790   30.9610 C   0  0  0  0  0  0  0  0  0  0  0  0
    4.0430   -7.3390   30.1190 C   0  0  0  0  0  0  0  0  0  0  0  0
    4.1380   -7.7460   31.4290 C   0  0  0  0  0  0  0  0  0  0  0  0
    5.3120   -7.7110   32.1870 C   0  0  0  0  0  0  0  0  0  0  0  0
    5.3400   -8.1430   33.5170 C   0  0  0  0  0  0  0  0  0  0  0  0
    4.0890   -8.6380   34.0910 C   0  0  0  0  0  0  0  0  0  0  0  0
    2.9380   -8.6740   33.3540 C   0  0  0  0  0  0  0  0  0  0  0  0
    2.9840   -8.2320   32.0490 C   0  0  0  0  0  0  0  0  0  0  0  0
    5.2790   -3.7020   28.9100 C   0  0  0  0  0  0  0  0  0  0  0  0
    4.9120   -2.8900   27.6300 C   0  0  0  0  0  0  0  0  0  0  0  0
    5.6050   -4.8530   23.6930 C   0  0  0  0  0  0  0  0  0  0  0  0
    6.3730   -5.3370   22.5000 C   0  0  0  0  0  0  0  0  0  0  0  0
  1  2  1  0
  2  3  2  0
  2  4  1  0
  4  5  1  0
  5  6  1  0
  6  7  1  0
  7  8  1  0
  8  9  2  0
  8 10  1  0
 10 11  1  0
 11 12  1  0
 12 13  1  0
 13 14  1  0
 14 15  1  0
 15 16  1  0
 15 17  1  0
 17 18  1  0
 18 19  2  0
 19 20  1  0
 20 21  2  0
 21 22  1  0
 18 23  1  0
 22 23  2  0
 13 24  1  0
 10 25  1  0
 24 25  1  0
  7 26  1  0
  4 27  1  0
 26 27  1  0
M  END
