piperidine-amides-4693-covalent
     RDKit          3D

 24 26  0  0  0  0  0  0  0  0999 V2000
    7.0470   -3.3390   19.2920 C   0  0  0  0  0  0  0  0  0  0  0  0
    6.3790   -4.1610   20.3240 C   0  0  0  0  0  0  0  0  0  0  0  0
    5.3490   -4.7650   19.9630 O   0  0  0  0  0  0  0  0  0  0  0  0
    6.9110   -4.2940   21.6220 N   0  0  0  0  0  0  0  0  0  0  0  0
    7.7010   -3.2430   22.1730 C   0  0  0  0  0  0  0  0  0  0  0  0
    7.4300   -3.0190   23.5830 C   0  0  0  0  0  0  0  0  0  0  0  0
    6.1410   -3.6010   23.9950 C   0  0  0  0  0  0  0  0  0  0  0  0
    5.8020   -3.2300   25.3910 C   0  0  0  0  0  0  0  0  0  0  0  0
    4.8380   -3.8140   25.9240 O   0  0  0  0  0  0  0  0  0  0  0  0
    6.5190   -2.2420   26.0950 N   0  0  0  0  0  0  0  0  0  0  0  0
    5.9820   -1.5890   27.3110 C   0  0  1  0  0  0  0  0  0  0  0  0
    7.0760   -1.3220   28.2680 C   0  0  0  0  0  0  0  0  0  0  0  0
    6.3820    0.0440   29.1240 S   0  0  0  0  0  0  0  0  0  0  0  0
    7.4240    0.9120   29.6990 O   0  0  0  0  0  0  0  0  0  0  0  0
    5.3110   -0.4210   30.0400 O   0  0  0  0  0  0  0  0  0  0  0  0
    5.7640    0.7180   27.5720 C   0  0  0  0  0  0  0  0  0  0  0  0
    5.2340   -0.3820   26.8810 C   0  0  1  0  0  0  0  0  0  0  0  0
    5.2480    0.0280   25.5300 N   0  0  0  0  0  0  0  0  0  0  0  0
    6.2610    0.9480   24.9990 C   0  0  0  0  0  0  0  0  0  0  0  0
    5.6330    1.9100   24.2960 C   0  0  0  0  0  0  0  0  0  0  0  0
    4.3070    1.7860   24.4400 C   0  0  0  0  0  0  0  0  0  0  0  0
    3.9410    0.7570   25.2520 C   0  0  0  0  0  0  0  0  0  0  0  0
    6.1100   -5.0850   23.7510 C   0  0  0  0  0  0  0  0  0  0  0  0
    6.7010   -5.4780   22.4380 C   0  0  0  0  0  0  0  0  0  0  0  0
  1  2  1  0
  2  3  2  0
  2  4  1  0
  4  5  1  0
  5  6  1  0
  6  7  1  0
  7  8  1  0
  8  9  2  0
  8 10  1  0
 11 10  1  6
 11 12  1  0
 13 12  1  0
 13 14  2  0
 13 15  2  0
 13 16  1  0
 11 17  1  0
 16 17  1  0
 17 18  1  6
 18 19  1  0
 19 20  1  0
 20 21  1  0
 18 22  1  0
 21 22  1  0
  7 23  1  0
  4 24  1  0
 23 24  1  0
M  END
