piperidine-amides-35069-covalent
     RDKit          3D

 32 34  0  0  0  0  0  0  0  0999 V2000
    7.0240   -3.3430   19.3640 C   0  0  0  0  0  0  0  0  0  0  0  0
    6.3960   -4.2270   20.3850 C   0  0  0  0  0  0  0  0  0  0  0  0
    5.4250   -4.8860   19.9980 O   0  0  0  0  0  0  0  0  0  0  0  0
    6.9170   -4.3270   21.6900 N   0  0  0  0  0  0  0  0  0  0  0  0
    6.7490   -5.5470   22.4570 C   0  0  0  0  0  0  0  0  0  0  0  0
    6.2340   -5.2240   23.8350 C   0  0  0  0  0  0  0  0  0  0  0  0
    6.2080   -3.7090   23.9830 C   0  0  0  0  0  0  0  0  0  0  0  0
    5.6790   -3.2580   25.3010 C   0  0  0  0  0  0  0  0  0  0  0  0
    4.7650   -2.4260   25.2770 O   0  0  0  0  0  0  0  0  0  0  0  0
    6.1100   -3.7070   26.5730 N   0  0  0  0  0  0  0  0  0  0  0  0
    6.0800   -2.6720   27.5750 C   0  0  0  0  0  0  0  0  0  0  0  0
    5.9440   -3.3680   28.8880 C   0  0  0  0  0  0  0  0  0  0  0  0
    6.4280   -4.6100   29.0480 C   0  0  0  0  0  0  0  0  0  0  0  0
    6.0170   -5.5130   28.1490 C   0  0  1  0  0  0  0  0  0  0  0  0
    5.1480   -6.3970   28.7480 C   0  0  2  0  0  0  0  0  0  0  0  0
    5.0420   -7.2830   27.7970 N   0  0  0  0  0  0  0  0  0  0  0  0
    3.6700   -7.5060   27.2970 C   0  0  0  0  0  0  0  0  0  0  0  0
    3.3170   -7.6930   25.9780 O   0  0  0  0  0  0  0  0  0  0  0  0
    2.5930   -7.5120   28.3270 C   0  0  0  0  0  0  0  0  0  0  0  0
    3.4180   -7.2030   29.5480 C   0  0  0  0  0  0  0  0  0  0  0  0
    3.8620   -5.7860   29.3100 C   0  0  1  0  0  0  0  0  0  0  0  0
    3.8970   -4.7770   30.2270 N   0  0  0  0  0  0  0  0  0  0  0  0
    2.6610   -4.2570   30.7820 C   0  0  0  0  0  0  0  0  0  0  0  0
    1.8650   -4.9610   31.4430 O   0  0  0  0  0  0  0  0  0  0  0  0
    2.2780   -2.9260   30.6070 O   0  0  0  0  0  0  0  0  0  0  0  0
    2.8820   -1.8530   31.3080 C   0  0  0  0  0  0  0  0  0  0  0  0
    3.0570   -2.1790   32.7510 C   0  0  0  0  0  0  0  0  0  0  0  0
    2.1340   -0.7220   30.9900 C   0  0  0  0  0  0  0  0  0  0  0  0
    4.2530   -1.5950   30.7480 C   0  0  0  0  0  0  0  0  0  0  0  0
    5.6730   -5.0460   26.9040 C   0  0  0  0  0  0  0  0  0  0  0  0
    7.5660   -3.0770   23.6990 C   0  0  0  0  0  0  0  0  0  0  0  0
    7.7540   -3.2360   22.1940 C   0  0  0  0  0  0  0  0  0  0  0  0
  1  2  1  0
  2  3  2  0
  2  4  1  0
  4  5  1  0
  5  6  1  0
  6  7  1  0
  7  8  1  0
  8  9  2  0
  8 10  1  0
 10 11  1  0
 11 12  1  0
 12 13  1  0
 14 13  1  1
 14 15  1  0
 15 16  1  6
 16 17  1  0
 17 18  2  0
 17 19  1  0
 19 20  1  0
 15 21  1  0
 20 21  1  0
 21 22  1  1
 22 23  1  0
 23 24  2  0
 23 25  1  0
 26 25  1  0
 26 27  1  0
 26 28  1  0
 26 29  1  0
 10 30  1  0
 14 30  1  0
  7 31  1  0
  4 32  1  0
 31 32  1  0
M  END
