piperidine-amides-13961-covalent
     RDKit          3D

 26 28  0  0  0  0  0  0  0  0999 V2000
    7.1200   -3.3070   19.2710 C   0  0  0  0  0  0  0  0  0  0  0  0
    6.3420   -4.0910   20.2680 C   0  0  0  0  0  0  0  0  0  0  0  0
    5.2770   -4.6140   19.9100 O   0  0  0  0  0  0  0  0  0  0  0  0
    6.8610   -4.2690   21.5720 N   0  0  0  0  0  0  0  0  0  0  0  0
    6.5420   -5.4400   22.3440 C   0  0  0  0  0  0  0  0  0  0  0  0
    5.7270   -4.9600   23.5540 C   0  0  0  0  0  0  0  0  0  0  0  0
    6.4890   -3.8620   24.2320 C   0  0  0  0  0  0  0  0  0  0  0  0
    5.8190   -3.4120   25.4760 C   0  0  0  0  0  0  0  0  0  0  0  0
    4.5840   -3.3710   25.4560 O   0  0  0  0  0  0  0  0  0  0  0  0
    6.5980   -3.0550   26.5820 N   0  0  0  0  0  0  0  0  0  0  0  0
    6.3010   -3.1520   27.9720 C   0  0  2  0  0  0  0  0  0  0  0  0
    5.9480   -4.3160   28.6100 C   0  0  0  0  0  0  0  0  0  0  0  0
    4.7570   -4.3510   29.3680 C   0  0  0  0  0  0  0  0  0  0  0  0
    4.3080   -5.4540   30.0520 C   0  0  0  0  0  0  0  0  0  0  0  0
    5.0280   -6.5840   30.0160 N   0  0  0  0  0  0  0  0  0  0  0  0
    6.1690   -6.6580   29.3300 C   0  0  0  0  0  0  0  0  0  0  0  0
    6.7340   -5.4720   28.5410 C   0  0  0  0  0  0  0  0  0  0  0  0
    5.6030   -2.0530   28.4830 C   0  0  0  0  0  0  0  0  0  0  0  0
    6.2790   -1.3550   29.4070 C   0  0  0  0  0  0  0  0  0  0  0  0
    5.6630   -0.1840   30.0270 C   0  0  0  0  0  0  0  0  0  0  0  0
    4.2430    0.0990   29.4980 C   0  0  0  0  0  0  0  0  0  0  0  0
    3.6660    1.1960   30.0790 F   0  0  0  0  0  0  0  0  0  0  0  0
    3.4280   -0.5420   28.5440 C   0  0  0  0  0  0  0  0  0  0  0  0
    4.3490   -1.7120   28.0890 C   0  0  0  0  0  0  0  0  0  0  0  0
    6.7820   -2.6830   23.3530 C   0  0  0  0  0  0  0  0  0  0  0  0
    7.6470   -3.2490   22.2290 C   0  0  0  0  0  0  0  0  0  0  0  0
  1  2  1  0
  2  3  2  0
  2  4  1  0
  4  5  1  0
  5  6  1  0
  6  7  1  0
  7  8  1  0
  8  9  2  0
  8 10  1  0
 11 10  1  6
 11 12  1  0
 12 13  2  0
 13 14  1  0
 14 15  2  0
 15 16  1  0
 12 17  1  0
 16 17  2  0
 11 18  1  0
 18 19  2  0
 19 20  1  0
 20 21  2  0
 21 22  1  0
 21 23  1  0
 18 24  1  0
 23 24  2  0
  7 25  1  0
  4 26  1  0
 25 26  1  0
M  END
