piperidine-amides-30110-covalent
     RDKit          3D

 27 29  0  0  0  0  0  0  0  0999 V2000
    7.0810   -3.3450   19.2980 C   0  0  0  0  0  0  0  0  0  0  0  0
    6.3830   -4.1620   20.2780 C   0  0  0  0  0  0  0  0  0  0  0  0
    5.3520   -4.7570   19.9600 O   0  0  0  0  0  0  0  0  0  0  0  0
    6.9250   -4.3280   21.5940 N   0  0  0  0  0  0  0  0  0  0  0  0
    7.7270   -3.2860   22.1920 C   0  0  0  0  0  0  0  0  0  0  0  0
    7.0500   -2.7280   23.4080 C   0  0  0  0  0  0  0  0  0  0  0  0
    6.6000   -3.8770   24.2890 C   0  0  0  0  0  0  0  0  0  0  0  0
    5.6850   -3.3780   25.3560 C   0  0  0  0  0  0  0  0  0  0  0  0
    4.7570   -2.5750   25.1460 O   0  0  0  0  0  0  0  0  0  0  0  0
    5.9050   -3.8750   26.6470 N   0  0  0  0  0  0  0  0  0  0  0  0
    6.7730   -5.0650   26.6100 C   0  0  0  0  0  0  0  0  0  0  0  0
    6.8950   -5.7520   27.9270 C   0  0  0  0  0  0  0  0  0  0  0  0
    6.1790   -5.2200   28.9310 C   0  0  0  0  0  0  0  0  0  0  0  0
    4.9960   -4.5960   28.5740 C   0  0  0  0  0  0  0  0  0  0  0  0
    5.0780   -3.4540   27.8090 C   0  0  1  0  0  0  0  0  0  0  0  0
    5.2910   -2.2220   28.6200 C   0  0  0  0  0  0  0  0  0  0  0  0
    6.0190   -1.0510   28.3870 C   0  0  0  0  0  0  0  0  0  0  0  0
    6.1020   -0.0560   29.3240 C   0  0  0  0  0  0  0  0  0  0  0  0
    6.8930    1.0310   28.9820 O   0  0  0  0  0  0  0  0  0  0  0  0
    6.2040    2.2410   29.1140 C   0  0  0  0  0  0  0  0  0  0  0  0
    5.4350   -0.1150   30.6000 C   0  0  0  0  0  0  0  0  0  0  0  0
    4.6980   -1.2460   30.8380 C   0  0  0  0  0  0  0  0  0  0  0  0
    4.0760   -1.2720   32.0530 O   0  0  0  0  0  0  0  0  0  0  0  0
    4.3300   -0.3560   33.1180 C   0  0  0  0  0  0  0  0  0  0  0  0
    4.6440   -2.2330   29.8880 C   0  0  0  0  0  0  0  0  0  0  0  0
    5.8430   -4.9710   23.5850 C   0  0  0  0  0  0  0  0  0  0  0  0
    6.5790   -5.4710   22.3670 C   0  0  0  0  0  0  0  0  0  0  0  0
  1  2  1  0
  2  3  2  0
  2  4  1  0
  4  5  1  0
  5  6  1  0
  6  7  1  0
  7  8  1  0
  8  9  2  0
  8 10  1  0
 10 11  1  0
 11 12  1  0
 12 13  1  0
 13 14  1  0
 10 15  1  0
 14 15  1  0
 15 16  1  1
 16 17  2  0
 17 18  1  0
 18 19  1  0
 19 20  1  0
 18 21  2  0
 21 22  1  0
 22 23  1  0
 23 24  1  0
 16 25  1  0
 22 25  2  0
  7 26  1  0
  4 27  1  0
 26 27  1  0
M  END
