piperidine-amides-9843-covalent
     RDKit          3D

 27 29  0  0  0  0  0  0  0  0999 V2000
    7.1030   -3.3500   19.2990 C   0  0  0  0  0  0  0  0  0  0  0  0
    6.3900   -4.1420   20.3020 C   0  0  0  0  0  0  0  0  0  0  0  0
    5.3170   -4.6850   19.9330 O   0  0  0  0  0  0  0  0  0  0  0  0
    6.9360   -4.3070   21.5720 N   0  0  0  0  0  0  0  0  0  0  0  0
    7.7330   -3.2670   22.1710 C   0  0  0  0  0  0  0  0  0  0  0  0
    6.9980   -2.7790   23.3730 C   0  0  0  0  0  0  0  0  0  0  0  0
    6.6850   -3.9120   24.3100 C   0  0  0  0  0  0  0  0  0  0  0  0
    5.9400   -3.3580   25.4510 C   0  0  0  0  0  0  0  0  0  0  0  0
    4.6960   -3.2440   25.3640 O   0  0  0  0  0  0  0  0  0  0  0  0
    6.5930   -2.9680   26.6280 N   0  0  0  0  0  0  0  0  0  0  0  0
    6.4790   -1.6420   27.1860 C   0  0  0  0  0  0  0  0  0  0  0  0
    7.0740   -1.5130   28.5740 C   0  0  0  0  0  0  0  0  0  0  0  0
    7.0490   -0.3320   29.2650 C   0  0  0  0  0  0  0  0  0  0  0  0
    6.4700    0.7850   28.6940 C   0  0  0  0  0  0  0  0  0  0  0  0
    6.4080    2.4520   29.6220 Br  0  0  0  0  0  0  0  0  0  0  0  0
    5.9330    0.6600   27.4200 C   0  0  0  0  0  0  0  0  0  0  0  0
    5.9070   -0.4840   26.6380 C   0  0  0  0  0  0  0  0  0  0  0  0
    5.3210   -0.4390   25.3650 O   0  0  0  0  0  0  0  0  0  0  0  0
    4.4010    0.6070   25.1290 C   0  0  0  0  0  0  0  0  0  0  0  0
    4.7520    1.6810   24.1040 C   0  0  0  0  0  0  0  0  0  0  0  0
    3.6550    2.7460   23.9580 C   0  0  0  0  0  0  0  0  0  0  0  0
    2.3830    2.6890   24.7670 C   0  0  0  0  0  0  0  0  0  0  0  0
    1.2900    3.7340   24.6300 C   0  0  0  0  0  0  0  0  0  0  0  0
    2.1610    1.6120   25.7190 C   0  0  0  0  0  0  0  0  0  0  0  0
    3.2260    0.5570   25.8770 C   0  0  0  0  0  0  0  0  0  0  0  0
    5.8650   -4.9720   23.6260 C   0  0  0  0  0  0  0  0  0  0  0  0
    6.5670   -5.4700   22.3560 C   0  0  0  0  0  0  0  0  0  0  0  0
  1  2  1  0
  2  3  2  0
  2  4  1  0
  4  5  1  0
  5  6  1  0
  6  7  1  0
  7  8  1  0
  8  9  2  0
  8 10  1  0
 10 11  1  0
 11 12  2  0
 12 13  1  0
 13 14  2  0
 14 15  1  0
 14 16  1  0
 11 17  1  0
 16 17  2  0
 17 18  1  0
 18 19  1  0
 19 20  2  0
 20 21  1  0
 21 22  2  0
 22 23  1  0
 22 24  1  0
 19 25  1  0
 24 25  2  0
  7 26  1  0
  4 27  1  0
 26 27  1  0
M  END
