piperidine-amides-33369-covalent
     RDKit          3D

 27 29  0  0  0  0  0  0  0  0999 V2000
    7.1250   -3.3550   19.2850 C   0  0  0  0  0  0  0  0  0  0  0  0
    6.3970   -4.1230   20.3020 C   0  0  0  0  0  0  0  0  0  0  0  0
    5.3270   -4.6650   19.9390 O   0  0  0  0  0  0  0  0  0  0  0  0
    6.9290   -4.2960   21.6040 N   0  0  0  0  0  0  0  0  0  0  0  0
    7.6660   -3.2300   22.1720 C   0  0  0  0  0  0  0  0  0  0  0  0
    7.2830   -2.8380   23.5240 C   0  0  0  0  0  0  0  0  0  0  0  0
    6.3270   -3.6890   24.2730 C   0  0  0  0  0  0  0  0  0  0  0  0
    5.2540   -2.8040   24.8410 C   0  0  0  0  0  0  0  0  0  0  0  0
    4.5480   -2.1050   24.1140 O   0  0  0  0  0  0  0  0  0  0  0  0
    5.0160   -2.7700   26.2030 N   0  0  0  0  0  0  0  0  0  0  0  0
    5.2180   -3.9210   26.9300 C   0  0  0  0  0  0  0  0  0  0  0  0
    6.4270   -3.7250   27.5360 C   0  0  0  0  0  0  0  0  0  0  0  0
    7.0550   -2.1650   27.9200 S   0  0  0  0  0  0  0  0  0  0  0  0
    8.5260   -2.6490   28.6330 C   0  0  0  0  0  0  0  0  0  0  0  0
    8.6410   -4.0750   28.5950 C   0  0  0  0  0  0  0  0  0  0  0  0
    7.4420   -4.7250   27.9750 C   0  0  0  0  0  0  0  0  0  0  0  0
    7.5860   -6.1770   27.9640 C   0  0  0  0  0  0  0  0  0  0  0  0
    5.4440   -1.5540   26.9230 C   0  0  0  0  0  0  0  0  0  0  0  0
    5.5450   -0.3280   26.0650 C   0  0  0  0  0  0  0  0  0  0  0  0
    5.9730    0.9290   26.7900 C   0  0  0  0  0  0  0  0  0  0  0  0
    6.2870    0.9490   28.2870 C   0  0  0  0  0  0  0  0  0  0  0  0
    6.6670    2.1660   28.8270 F   0  0  0  0  0  0  0  0  0  0  0  0
    6.1400   -0.3550   28.9800 C   0  0  0  0  0  0  0  0  0  0  0  0
    6.4970   -0.3520   30.7160 Cl  0  0  0  0  0  0  0  0  0  0  0  0
    5.7330   -1.5460   28.3230 C   0  0  0  0  0  0  0  0  0  0  0  0
    5.7280   -4.8840   23.5850 C   0  0  0  0  0  0  0  0  0  0  0  0
    6.5240   -5.4000   22.4090 C   0  0  0  0  0  0  0  0  0  0  0  0
  1  2  1  0
  2  3  2  0
  2  4  1  0
  4  5  1  0
  5  6  1  0
  6  7  1  0
  7  8  1  0
  8  9  2  0
  8 10  1  0
 10 11  1  0
 11 12  1  0
 12 13  1  0
 13 14  1  0
 14 15  2  0
 12 16  2  0
 15 16  1  0
 16 17  1  0
 10 18  1  0
 18 19  2  0
 19 20  1  0
 20 21  2  0
 21 22  1  0
 21 23  1  0
 23 24  1  0
 18 25  1  0
 23 25  2  0
  7 26  1  0
  4 27  1  0
 26 27  1  0
M  END
