piperidine-amides-1386-covalent
     RDKit          3D

 22 23  0  0  0  0  0  0  0  0999 V2000
    7.0860   -3.2790   19.2480 C   0  0  0  0  0  0  0  0  0  0  0  0
    6.2960   -4.0120   20.2760 C   0  0  0  0  0  0  0  0  0  0  0  0
    5.2910   -4.6440   19.9160 O   0  0  0  0  0  0  0  0  0  0  0  0
    6.7290   -4.0010   21.6210 N   0  0  0  0  0  0  0  0  0  0  0  0
    7.6190   -2.9890   22.1530 C   0  0  0  0  0  0  0  0  0  0  0  0
    7.1300   -2.5720   23.5520 C   0  0  0  0  0  0  0  0  0  0  0  0
    5.8510   -3.2930   23.8320 C   0  0  0  0  0  0  0  0  0  0  0  0
    5.1050   -2.9430   25.0930 C   0  0  0  0  0  0  0  0  0  0  0  0
    4.0590   -3.5740   25.2520 O   0  0  0  0  0  0  0  0  0  0  0  0
    5.5140   -1.9750   26.0500 N   0  0  0  0  0  0  0  0  0  0  0  0
    5.7430   -2.2780   27.4230 C   0  0  1  0  0  0  0  0  0  0  0  0
    4.8990   -2.9620   28.2620 C   0  0  0  0  0  0  0  0  0  0  0  0
    5.0670   -2.3050   29.5500 O   0  0  0  0  0  0  0  0  0  0  0  0
    6.7270   -3.3030   27.2470 C   0  0  0  0  0  0  0  0  0  0  0  0
    7.4940   -3.1530   26.1500 C   0  0  0  0  0  0  0  0  0  0  0  0
    8.4820   -4.1040   25.7950 C   0  0  0  0  0  0  0  0  0  0  0  0
    8.6700   -5.2930   26.6670 C   0  0  0  0  0  0  0  0  0  0  0  0
    9.7670   -6.4730   26.3390 Cl  0  0  0  0  0  0  0  0  0  0  0  0
    7.7620   -5.3130   27.8620 C   0  0  0  0  0  0  0  0  0  0  0  0
    6.8570   -4.3540   28.1020 C   0  0  0  0  0  0  0  0  0  0  0  0
    5.9720   -4.7830   23.7480 C   0  0  0  0  0  0  0  0  0  0  0  0
    6.5330   -5.2030   22.4000 C   0  0  0  0  0  0  0  0  0  0  0  0
  1  2  1  0
  2  3  2  0
  2  4  1  0
  4  5  1  0
  5  6  1  0
  6  7  1  0
  7  8  1  0
  8  9  2  0
  8 10  1  0
 10 11  1  0
 11 12  1  6
 12 13  1  0
 11 14  1  0
 14 15  2  0
 15 16  1  0
 16 17  2  0
 17 18  1  0
 17 19  1  0
 14 20  1  0
 19 20  2  0
  7 21  1  0
  4 22  1  0
 21 22  1  0
M  END
