piperidine-amides-24290-covalent
     RDKit          3D

 23 24  0  0  0  0  0  0  0  0999 V2000
    7.0470   -3.3470   19.3380 C   0  0  0  0  0  0  0  0  0  0  0  0
    6.3900   -4.2090   20.3330 C   0  0  0  0  0  0  0  0  0  0  0  0
    5.3960   -4.8920   19.9940 O   0  0  0  0  0  0  0  0  0  0  0  0
    6.8900   -4.3100   21.6410 N   0  0  0  0  0  0  0  0  0  0  0  0
    6.7290   -5.5760   22.3470 C   0  0  0  0  0  0  0  0  0  0  0  0
    6.1470   -5.2780   23.7390 C   0  0  0  0  0  0  0  0  0  0  0  0
    6.0520   -3.7800   23.8080 C   0  0  0  0  0  0  0  0  0  0  0  0
    5.2830   -3.3170   24.9770 C   0  0  0  0  0  0  0  0  0  0  0  0
    4.3490   -2.5290   24.7590 O   0  0  0  0  0  0  0  0  0  0  0  0
    5.5530   -3.7190   26.2900 N   0  0  0  0  0  0  0  0  0  0  0  0
    4.4040   -3.9910   27.0810 C   0  0  0  0  0  0  0  0  0  0  0  0
    4.7560   -5.0590   28.0720 C   0  0  1  0  0  0  0  0  0  0  0  0
    5.0000   -6.3400   27.6340 C   0  0  0  0  0  0  0  0  0  0  0  0
    6.0470   -4.7490   28.6240 N   0  0  0  0  0  0  0  0  0  0  0  0
    6.8290   -5.8130   29.0410 C   0  0  0  0  0  0  0  0  0  0  0  0
    6.4490   -3.4290   28.3920 C   0  0  2  0  0  0  0  0  0  0  0  0
    5.6090   -2.5420   29.0580 C   0  0  0  0  0  0  0  0  0  0  0  0
    5.0380   -1.6330   28.1880 F   0  0  0  0  0  0  0  0  0  0  0  0
    6.2950   -1.8620   30.0480 F   0  0  0  0  0  0  0  0  0  0  0  0
    4.5160   -3.2500   29.5580 F   0  0  0  0  0  0  0  0  0  0  0  0
    6.4790   -2.8700   26.9560 C   0  0  0  0  0  0  0  0  0  0  0  0
    7.3620   -3.1160   23.6230 C   0  0  0  0  0  0  0  0  0  0  0  0
    7.7670   -3.2810   22.2030 C   0  0  0  0  0  0  0  0  0  0  0  0
  1  2  1  0
  2  3  2  0
  2  4  1  0
  4  5  1  0
  5  6  1  0
  6  7  1  0
  7  8  1  0
  8  9  2  0
  8 10  1  0
 10 11  1  0
 11 12  1  0
 12 13  1  6
 12 14  1  0
 14 15  1  0
 14 16  1  0
 16 17  1  1
 17 18  1  0
 17 19  1  0
 17 20  1  0
 10 21  1  0
 16 21  1  0
  7 22  1  0
  4 23  1  0
 22 23  1  0
M  END
