piperidine-amides-2951-covalent
     RDKit          3D

 24 25  0  0  0  0  0  0  0  0999 V2000
    7.1710   -3.2820   19.1350 C   0  0  0  0  0  0  0  0  0  0  0  0
    6.4080   -4.0050   20.1440 C   0  0  0  0  0  0  0  0  0  0  0  0
    5.3080   -4.4870   19.8690 O   0  0  0  0  0  0  0  0  0  0  0  0
    6.9800   -4.2110   21.4370 N   0  0  0  0  0  0  0  0  0  0  0  0
    7.8070   -3.1870   22.0130 C   0  0  0  0  0  0  0  0  0  0  0  0
    7.0940   -2.5770   23.1660 C   0  0  0  0  0  0  0  0  0  0  0  0
    6.5100   -3.7150   23.9710 C   0  0  0  0  0  0  0  0  0  0  0  0
    5.6790   -3.1520   25.0410 C   0  0  0  0  0  0  0  0  0  0  0  0
    4.6570   -2.4690   24.8500 O   0  0  0  0  0  0  0  0  0  0  0  0
    6.0940   -3.4280   26.3240 N   0  0  0  0  0  0  0  0  0  0  0  0
    5.6140   -4.6630   26.8610 C   0  0  0  0  0  0  0  0  0  0  0  0
    5.8050   -4.4910   28.3090 C   0  0  2  0  0  0  0  0  0  0  0  0
    6.6810   -3.5350   28.7130 C   0  0  0  0  0  0  0  0  0  0  0  0
    6.2850   -2.6840   29.5370 O   0  0  0  0  0  0  0  0  0  0  0  0
    6.2820   -5.8630   28.8200 C   0  0  0  0  0  0  0  0  0  0  0  0
    5.1420   -6.5670   29.1250 C   0  0  0  0  0  0  0  0  0  0  0  0
    4.1860   -6.9900   28.1320 C   0  0  0  0  0  0  0  0  0  0  0  0
    3.0610   -7.6770   28.4640 C   0  0  0  0  0  0  0  0  0  0  0  0
    2.7480   -8.0220   29.7590 C   0  0  0  0  0  0  0  0  0  0  0  0
    3.6120   -7.6610   30.8090 C   0  0  0  0  0  0  0  0  0  0  0  0
    3.3560   -7.9720   32.1050 F   0  0  0  0  0  0  0  0  0  0  0  0
    4.8330   -6.9120   30.4280 C   0  0  0  0  0  0  0  0  0  0  0  0
    5.7130   -4.7380   23.1790 C   0  0  0  0  0  0  0  0  0  0  0  0
    6.5600   -5.3130   22.2450 C   0  0  0  0  0  0  0  0  0  0  0  0
  1  2  1  0
  2  3  2  0
  2  4  1  0
  4  5  1  0
  5  6  1  0
  6  7  1  0
  7  8  1  0
  8  9  2  0
  8 10  1  0
 10 11  1  0
 12 11  1  6
 12 13  1  0
 13 14  1  0
 12 15  1  0
 15 16  1  0
 16 17  2  0
 17 18  1  0
 18 19  2  0
 19 20  1  0
 20 21  1  0
 16 22  1  0
 20 22  2  0
  7 23  1  0
  4 24  1  0
 23 24  1  0
M  END
