piperidine-amides-31236-covalent
     RDKit          3D

 28 31  0  0  0  0  0  0  0  0999 V2000
    7.0670   -3.3200   19.2780 C   0  0  0  0  0  0  0  0  0  0  0  0
    6.3650   -4.1290   20.2750 C   0  0  0  0  0  0  0  0  0  0  0  0
    5.3400   -4.7440   19.9500 O   0  0  0  0  0  0  0  0  0  0  0  0
    6.8640   -4.2640   21.5790 N   0  0  0  0  0  0  0  0  0  0  0  0
    6.6830   -5.4880   22.3230 C   0  0  0  0  0  0  0  0  0  0  0  0
    5.9310   -5.0970   23.5680 C   0  0  0  0  0  0  0  0  0  0  0  0
    6.6200   -4.0020   24.3310 C   0  0  0  0  0  0  0  0  0  0  0  0
    5.7110   -3.3970   25.3430 C   0  0  0  0  0  0  0  0  0  0  0  0
    4.4690   -3.3050   25.1080 O   0  0  0  0  0  0  0  0  0  0  0  0
    6.1520   -2.8940   26.5870 N   0  0  0  0  0  0  0  0  0  0  0  0
    5.2110   -2.5160   27.6580 C   0  0  0  0  0  0  0  0  0  0  0  0
    5.0890   -3.5790   28.6900 C   0  0  0  0  0  0  0  0  0  0  0  0
    6.1820   -4.3480   28.7520 N   0  0  0  0  0  0  0  0  0  0  0  0
    6.1400   -5.7510   28.9780 C   0  0  0  0  0  0  0  0  0  0  0  0
    4.9000   -6.1410   29.7680 C   0  0  0  0  0  0  0  0  0  0  0  0
    4.1550   -4.9950   30.4800 C   0  0  0  0  0  0  0  0  0  0  0  0
    2.9330   -5.4040   31.2560 C   0  0  0  0  0  0  0  0  0  0  0  0
    2.5600   -6.7140   31.2880 C   0  0  0  0  0  0  0  0  0  0  0  0
    3.2220   -7.7360   30.6510 C   0  0  0  0  0  0  0  0  0  0  0  0
    4.4490   -7.4250   29.8560 C   0  0  0  0  0  0  0  0  0  0  0  0
    7.4900   -4.0320   28.1770 C   0  0  1  0  0  0  0  0  0  0  0  0
    8.4210   -5.0200   27.6430 C   0  0  0  0  0  0  0  0  0  0  0  0
    9.3690   -5.4290   27.0730 C   0  0  0  0  0  0  0  0  0  0  0  0
    8.6570   -6.3300   26.4820 C   0  0  0  0  0  0  0  0  0  0  0  0
    7.4910   -5.9170   27.0140 C   0  0  0  0  0  0  0  0  0  0  0  0
    7.4560   -3.1020   27.0010 C   0  0  0  0  0  0  0  0  0  0  0  0
    7.1070   -2.8600   23.5010 C   0  0  0  0  0  0  0  0  0  0  0  0
    7.7230   -3.2770   22.1910 C   0  0  0  0  0  0  0  0  0  0  0  0
  1  2  1  0
  2  3  2  0
  2  4  1  0
  4  5  1  0
  5  6  1  0
  6  7  1  0
  7  8  1  0
  8  9  2  0
  8 10  1  0
 10 11  1  0
 11 12  1  0
 12 13  1  0
 13 14  1  0
 14 15  1  0
 15 16  2  0
 16 17  1  0
 17 18  2  0
 18 19  1  0
 15 20  1  0
 19 20  2  0
 13 21  1  0
 21 22  1  6
 22 23  1  0
 23 24  1  0
 22 25  1  0
 24 25  1  0
 10 26  1  0
 21 26  1  0
  7 27  1  0
  4 28  1  0
 27 28  1  0
M  END
