piperidine-amides-415-covalent
     RDKit          3D

 31 34  0  0  0  0  0  0  0  0999 V2000
    7.1490   -3.2920   19.3640 C   0  0  0  0  0  0  0  0  0  0  0  0
    6.4300   -4.0950   20.3310 C   0  0  0  0  0  0  0  0  0  0  0  0
    5.3890   -4.7220   19.9490 O   0  0  0  0  0  0  0  0  0  0  0  0
    6.8670   -4.2320   21.6670 N   0  0  0  0  0  0  0  0  0  0  0  0
    7.8570   -3.2070   22.1470 C   0  0  0  0  0  0  0  0  0  0  0  0
    7.5260   -3.0310   23.6830 C   0  0  0  0  0  0  0  0  0  0  0  0
    6.2150   -3.7270   23.8380 C   0  0  0  0  0  0  0  0  0  0  0  0
    5.2640   -3.2220   24.9960 C   0  0  0  0  0  0  0  0  0  0  0  0
    4.1620   -3.0080   24.5220 O   0  0  0  0  0  0  0  0  0  0  0  0
    5.8200   -3.1500   26.1310 N   0  0  0  0  0  0  0  0  0  0  0  0
    6.1350   -2.9630   27.4300 C   0  0  0  0  0  0  0  0  0  0  0  0
    5.4790   -2.6230   28.5730 C   0  0  0  0  0  0  0  0  0  0  0  0
    4.3600   -3.2950   29.0320 C   0  0  0  0  0  0  0  0  0  0  0  0
    3.8480   -2.7900   30.1830 N   0  0  0  0  0  0  0  0  0  0  0  0
    2.7200   -3.4170   30.7050 C   0  0  0  0  0  0  0  0  0  0  0  0
    2.4710   -4.6000   29.7470 C   0  0  0  0  0  0  0  0  0  0  0  0
    3.2520   -5.6530   30.2660 C   0  0  0  0  0  0  0  0  0  0  0  0
    3.4450   -7.0190   29.8100 C   0  0  0  0  0  0  0  0  0  0  0  0
    2.5150   -6.9850   28.5510 C   0  0  0  0  0  0  0  0  0  0  0  0
    1.6470   -5.8360   27.9660 C   0  0  0  0  0  0  0  0  0  0  0  0
    1.6800   -4.6870   28.6170 C   0  0  0  0  0  0  0  0  0  0  0  0
    4.6000   -1.7150   30.5980 N   0  0  0  0  0  0  0  0  0  0  0  0
    5.5490   -1.6480   29.6310 C   0  0  0  0  0  0  0  0  0  0  0  0
    6.6580   -1.0190   29.1460 C   0  0  0  0  0  0  0  0  0  0  0  0
    6.7220   -0.5880   27.8040 C   0  0  0  0  0  0  0  0  0  0  0  0
    7.7210    0.0780   27.0160 C   0  0  0  0  0  0  0  0  0  0  0  0
    8.8560    0.2780   27.9810 C   0  0  0  0  0  0  0  0  0  0  0  0
    8.8970   -0.1240   29.3980 C   0  0  0  0  0  0  0  0  0  0  0  0
    7.7310   -0.8070   30.0030 C   0  0  0  0  0  0  0  0  0  0  0  0
    6.3430   -5.2310   23.7340 C   0  0  0  0  0  0  0  0  0  0  0  0
    6.7650   -5.5200   22.3220 C   0  0  0  0  0  0  0  0  0  0  0  0
  1  2  1  0
  2  3  2  0
  2  4  1  0
  4  5  1  0
  5  6  1  0
  6  7  1  0
  7  8  1  0
  8  9  2  0
  8 10  1  0
 10 11  1  0
 11 12  1  0
 12 13  2  0
 13 14  1  0
 14 15  1  0
 15 16  1  0
 16 17  2  0
 17 18  1  0
 18 19  2  0
 19 20  1  0
 16 21  1  0
 20 21  2  0
 14 22  1  0
 12 23  1  0
 22 23  2  0
 23 24  1  0
 24 25  2  0
 25 26  1  0
 26 27  2  0
 27 28  1  0
 24 29  1  0
 28 29  2  0
  7 30  1  0
  4 31  1  0
 30 31  1  0
M  END
