piperidine-amides-31646-covalent
     RDKit          3D

 28 30  0  0  0  0  0  0  0  0999 V2000
    7.0080   -3.4010   19.3730 C   0  0  0  0  0  0  0  0  0  0  0  0
    6.3610   -4.1940   20.3970 C   0  0  0  0  0  0  0  0  0  0  0  0
    5.4070   -4.9390   20.0070 O   0  0  0  0  0  0  0  0  0  0  0  0
    6.7580   -4.2270   21.7600 N   0  0  0  0  0  0  0  0  0  0  0  0
    6.7370   -5.5810   22.3840 C   0  0  0  0  0  0  0  0  0  0  0  0
    6.2070   -5.3740   23.8720 C   0  0  0  0  0  0  0  0  0  0  0  0
    6.0730   -3.8930   24.1270 C   0  0  0  0  0  0  0  0  0  0  0  0
    4.9930   -3.4880   25.2560 C   0  0  0  0  0  0  0  0  0  0  0  0
    3.9410   -3.3340   24.6700 O   0  0  0  0  0  0  0  0  0  0  0  0
    5.3890   -3.3940   26.4840 N   0  0  0  0  0  0  0  0  0  0  0  0
    5.4380   -2.9540   27.7580 C   0  0  0  0  0  0  0  0  0  0  0  0
    5.1470   -3.4610   28.9890 C   0  0  0  0  0  0  0  0  0  0  0  0
    5.5440   -4.8660   28.9890 N   0  0  0  0  0  0  0  0  0  0  0  0
    4.7630   -5.8940   29.4250 C   0  0  0  0  0  0  0  0  0  0  0  0
    5.7670   -6.9220   29.8150 C   0  0  0  0  0  0  0  0  0  0  0  0
    5.0890   -7.1460   31.1980 C   0  0  0  0  0  0  0  0  0  0  0  0
    5.8170   -8.3310   31.4290 C   0  0  0  0  0  0  0  0  0  0  0  0
    5.5830   -8.7920   32.8140 C   0  0  0  0  0  0  0  0  0  0  0  0
    6.4160  -10.1190   32.9610 C   0  0  0  0  0  0  0  0  0  0  0  0
    7.3170  -10.8750   31.9560 C   0  0  0  0  0  0  0  0  0  0  0  0
    7.9280  -11.9420   32.1970 O   0  0  0  0  0  0  0  0  0  0  0  0
    7.3570  -12.9900   32.9420 C   0  0  0  0  0  0  0  0  0  0  0  0
    7.3880  -10.2160   30.7000 C   0  0  0  0  0  0  0  0  0  0  0  0
    6.7010   -9.0770   30.4910 C   0  0  0  0  0  0  0  0  0  0  0  0
    6.5730   -5.0890   28.0070 C   0  0  0  0  0  0  0  0  0  0  0  0
    6.3940   -4.3280   26.8260 C   0  0  0  0  0  0  0  0  0  0  0  0
    7.2280   -3.0200   23.7970 C   0  0  0  0  0  0  0  0  0  0  0  0
    7.6300   -3.2460   22.3740 C   0  0  0  0  0  0  0  0  0  0  0  0
  1  2  1  0
  2  3  2  0
  2  4  1  0
  4  5  1  0
  5  6  1  0
  6  7  1  0
  7  8  1  0
  8  9  2  0
  8 10  1  0
 10 11  1  0
 11 12  1  0
 12 13  1  0
 13 14  1  0
 14 15  1  0
 15 16  1  0
 16 17  1  0
 17 18  2  0
 18 19  1  0
 19 20  2  0
 20 21  1  0
 21 22  1  0
 20 23  1  0
 17 24  1  0
 23 24  2  0
 13 25  1  0
 10 26  1  0
 25 26  1  0
  7 27  1  0
  4 28  1  0
 27 28  1  0
M  END
