piperidine-amides-10728-covalent
     RDKit          3D

 22 23  0  0  0  0  0  0  0  0999 V2000
    7.0820   -3.3290   19.2830 C   0  0  0  0  0  0  0  0  0  0  0  0
    6.3910   -4.1360   20.2830 C   0  0  0  0  0  0  0  0  0  0  0  0
    5.3690   -4.7710   19.9620 O   0  0  0  0  0  0  0  0  0  0  0  0
    6.9010   -4.2420   21.5800 N   0  0  0  0  0  0  0  0  0  0  0  0
    7.7430   -3.2320   22.1780 C   0  0  0  0  0  0  0  0  0  0  0  0
    6.9370   -2.6800   23.3090 C   0  0  0  0  0  0  0  0  0  0  0  0
    6.5510   -3.7670   24.2570 C   0  0  0  0  0  0  0  0  0  0  0  0
    5.7600   -3.2390   25.3940 C   0  0  0  0  0  0  0  0  0  0  0  0
    4.5300   -2.9890   25.2310 O   0  0  0  0  0  0  0  0  0  0  0  0
    6.3010   -2.9900   26.6820 N   0  0  0  0  0  0  0  0  0  0  0  0
    6.0010   -1.7330   27.4210 C   0  0  0  0  0  0  0  0  0  0  0  0
    4.7850   -1.9450   28.2600 C   0  0  0  0  0  0  0  0  0  0  0  0
    3.7670   -2.8490   27.6780 C   0  0  0  0  0  0  0  0  0  0  0  0
    2.8810   -2.3540   26.6230 N   0  0  0  0  0  0  0  0  0  0  0  0
    3.8060   -3.9740   28.2180 O   0  0  0  0  0  0  0  0  0  0  0  0
    5.8690   -0.5000   26.5330 C   0  0  0  0  0  0  0  0  0  0  0  0
    5.7530    0.6890   27.4990 C   0  0  0  0  0  0  0  0  0  0  0  0
    5.7730    0.4590   28.7650 O   0  0  0  0  0  0  0  0  0  0  0  0
    6.6770   -0.4800   29.2090 C   0  0  0  0  0  0  0  0  0  0  0  0
    7.1650   -1.4480   28.4010 C   0  0  0  0  0  0  0  0  0  0  0  0
    5.7790   -4.8760   23.5700 C   0  0  0  0  0  0  0  0  0  0  0  0
    6.5830   -5.3920   22.3950 C   0  0  0  0  0  0  0  0  0  0  0  0
  1  2  1  0
  2  3  2  0
  2  4  1  0
  4  5  1  0
  5  6  1  0
  6  7  1  0
  7  8  1  0
  8  9  2  0
  8 10  1  0
 11 10  1  0
 11 12  1  0
 12 13  1  0
 13 14  1  0
 13 15  2  0
 11 16  1  0
 16 17  1  0
 17 18  1  0
 18 19  1  0
 11 20  1  0
 19 20  1  0
  7 21  1  0
  4 22  1  0
 21 22  1  0
M  END
