piperidine-amides-5272-covalent
     RDKit          3D

 21 22  0  0  0  0  0  0  0  0999 V2000
    7.0590   -3.3380   19.2400 C   0  0  0  0  0  0  0  0  0  0  0  0
    6.3740   -4.1420   20.2750 C   0  0  0  0  0  0  0  0  0  0  0  0
    5.3220   -4.7200   19.9390 O   0  0  0  0  0  0  0  0  0  0  0  0
    6.9250   -4.2790   21.5510 N   0  0  0  0  0  0  0  0  0  0  0  0
    6.5260   -5.3560   22.3950 C   0  0  0  0  0  0  0  0  0  0  0  0
    5.9540   -4.9410   23.6870 C   0  0  0  0  0  0  0  0  0  0  0  0
    6.5470   -3.7200   24.2860 C   0  0  0  0  0  0  0  0  0  0  0  0
    5.7080   -3.2060   25.4010 C   0  0  0  0  0  0  0  0  0  0  0  0
    4.4870   -3.0780   25.1940 O   0  0  0  0  0  0  0  0  0  0  0  0
    6.2490   -2.8770   26.6610 N   0  0  0  0  0  0  0  0  0  0  0  0
    6.7200   -1.5020   26.9920 C   0  0  1  0  0  0  0  0  0  0  0  0
    5.8360   -0.4020   26.5870 C   0  0  0  0  0  0  0  0  0  0  0  0
    5.6610    0.4040   27.7680 C   0  0  0  0  0  0  0  0  0  0  0  0
    6.2330   -0.2470   28.8570 C   0  0  2  0  0  0  0  0  0  0  0  0
    6.7700    0.5320   29.8760 C   0  0  0  0  0  0  0  0  0  0  0  0
    6.9200    1.8590   29.5920 C   0  0  0  0  0  0  0  0  0  0  0  0
    7.7370    2.6120   30.3920 C   0  0  0  0  0  0  0  0  0  0  0  0
    8.4790    3.6280   29.8500 C   0  0  0  0  0  0  0  0  0  0  0  0
    7.0390   -1.3160   28.4410 C   0  0  0  0  0  0  0  0  0  0  0  0
    6.9030   -2.6500   23.3360 C   0  0  0  0  0  0  0  0  0  0  0  0
    7.6740   -3.1990   22.1750 C   0  0  0  0  0  0  0  0  0  0  0  0
  1  2  1  0
  2  3  2  0
  2  4  1  0
  4  5  1  0
  5  6  1  0
  6  7  1  0
  7  8  1  0
  8  9  2  0
  8 10  1  0
 11 10  1  1
 11 12  1  0
 12 13  1  0
 13 14  1  0
 14 15  1  6
 15 16  1  0
 16 17  1  0
 17 18  1  0
 11 19  1  0
 14 19  1  0
  7 20  1  0
  4 21  1  0
 20 21  1  0
M  END
