piperidine-amides-8229-covalent
     RDKit          3D

 25 26  0  0  0  0  0  0  0  0999 V2000
    7.1090   -3.2650   19.2360 C   0  0  0  0  0  0  0  0  0  0  0  0
    6.3850   -4.0460   20.2390 C   0  0  0  0  0  0  0  0  0  0  0  0
    5.3090   -4.5660   19.8980 O   0  0  0  0  0  0  0  0  0  0  0  0
    6.9270   -4.2500   21.5350 N   0  0  0  0  0  0  0  0  0  0  0  0
    6.5570   -5.4280   22.2550 C   0  0  0  0  0  0  0  0  0  0  0  0
    5.7820   -5.0120   23.4680 C   0  0  0  0  0  0  0  0  0  0  0  0
    6.5980   -3.9380   24.1550 C   0  0  0  0  0  0  0  0  0  0  0  0
    5.8410   -3.3920   25.3380 C   0  0  0  0  0  0  0  0  0  0  0  0
    4.6640   -3.1020   25.1440 O   0  0  0  0  0  0  0  0  0  0  0  0
    6.5040   -3.2370   26.5560 N   0  0  0  0  0  0  0  0  0  0  0  0
    6.2280   -4.0010   27.7450 C   0  0  0  0  0  0  0  0  0  0  0  0
    5.9220   -5.3760   27.5950 C   0  0  2  0  0  0  0  0  0  0  0  0
    5.1740   -5.6950   26.6540 O   0  0  0  0  0  0  0  0  0  0  0  0
    5.2980   -5.9600   28.6660 C   0  0  0  0  0  0  0  0  0  0  0  0
    3.9680   -5.5380   28.8040 O   0  0  0  0  0  0  0  0  0  0  0  0
    3.0270   -6.4630   29.3650 C   0  0  0  0  0  0  0  0  0  0  0  0
    2.6640   -7.7850   28.7990 C   0  0  0  0  0  0  0  0  0  0  0  0
    1.6460   -8.7580   29.4290 C   0  0  0  0  0  0  0  0  0  0  0  0
    1.0050   -8.3080   30.6970 C   0  0  0  0  0  0  0  0  0  0  0  0
    0.1040   -9.2380   31.2040 F   0  0  0  0  0  0  0  0  0  0  0  0
    1.3800   -6.9590   31.2730 C   0  0  0  0  0  0  0  0  0  0  0  0
    0.7130   -6.6750   32.4420 F   0  0  0  0  0  0  0  0  0  0  0  0
    2.4210   -6.0640   30.5460 C   0  0  0  0  0  0  0  0  0  0  0  0
    6.8150   -2.7800   23.2080 C   0  0  0  0  0  0  0  0  0  0  0  0
    7.6730   -3.2240   22.2280 C   0  0  0  0  0  0  0  0  0  0  0  0
  1  2  1  0
  2  3  2  0
  2  4  1  0
  4  5  1  0
  5  6  1  0
  6  7  1  0
  7  8  1  0
  8  9  2  0
  8 10  1  0
 10 11  1  0
 11 12  1  0
 12 13  1  6
 12 14  1  0
 14 15  1  0
 15 16  1  0
 16 17  2  0
 17 18  1  0
 18 19  2  0
 19 20  1  0
 19 21  1  0
 21 22  1  0
 16 23  1  0
 21 23  2  0
  7 24  1  0
  4 25  1  0
 24 25  1  0
M  END
