piperidine-amides-31112-covalent
     RDKit          3D

 23 25  0  0  0  0  0  0  0  0999 V2000
    7.0470   -3.3330   19.3140 C   0  0  0  0  0  0  0  0  0  0  0  0
    6.3350   -4.1520   20.2950 C   0  0  0  0  0  0  0  0  0  0  0  0
    5.3030   -4.7430   19.9460 O   0  0  0  0  0  0  0  0  0  0  0  0
    6.8060   -4.3390   21.6020 N   0  0  0  0  0  0  0  0  0  0  0  0
    6.5590   -5.5620   22.3320 C   0  0  0  0  0  0  0  0  0  0  0  0
    5.7650   -5.1490   23.5430 C   0  0  0  0  0  0  0  0  0  0  0  0
    6.5000   -4.0980   24.3110 C   0  0  0  0  0  0  0  0  0  0  0  0
    5.7710   -3.6780   25.5570 C   0  0  0  0  0  0  0  0  0  0  0  0
    4.5770   -3.2710   25.4350 O   0  0  0  0  0  0  0  0  0  0  0  0
    6.2860   -3.6700   26.8970 N   0  0  0  0  0  0  0  0  0  0  0  0
    6.3870   -2.3620   27.5760 C   0  0  0  0  0  0  0  0  0  0  0  0
    5.3310   -2.2500   28.5800 C   0  0  0  0  0  0  0  0  0  0  0  0
    4.7520   -3.4810   29.0690 C   0  0  0  0  0  0  0  0  0  0  0  0
    3.5720   -3.2580   29.9740 C   0  0  0  0  0  0  0  0  0  0  0  0
    2.8860   -4.4650   30.5410 C   0  0  0  0  0  0  0  0  0  0  0  0
    3.4600   -5.7640   30.1450 C   0  0  0  0  0  0  0  0  0  0  0  0
    2.8050   -6.8670   30.6930 F   0  0  0  0  0  0  0  0  0  0  0  0
    4.5500   -5.8460   29.3060 C   0  0  0  0  0  0  0  0  0  0  0  0
    5.1550   -7.5570   28.9090 Br  0  0  0  0  0  0  0  0  0  0  0  0
    5.1950   -4.7180   28.7640 C   0  0  0  0  0  0  0  0  0  0  0  0
    6.3630   -4.7450   27.8460 C   0  0  0  0  0  0  0  0  0  0  0  0
    6.8250   -2.8770   23.4910 C   0  0  0  0  0  0  0  0  0  0  0  0
    7.5910   -3.3140   22.2660 C   0  0  0  0  0  0  0  0  0  0  0  0
  1  2  1  0
  2  3  2  0
  2  4  1  0
  4  5  1  0
  5  6  1  0
  6  7  1  0
  7  8  1  0
  8  9  2  0
  8 10  1  0
 10 11  1  0
 11 12  1  0
 12 13  1  0
 13 14  2  0
 14 15  1  0
 15 16  2  0
 16 17  1  0
 16 18  1  0
 18 19  1  0
 13 20  1  0
 18 20  2  0
 10 21  1  0
 20 21  1  0
  7 22  1  0
  4 23  1  0
 22 23  1  0
M  END
