piperidine-amides-8403-covalent
     RDKit          3D

 24 26  0  0  0  0  0  0  0  0999 V2000
    7.0800   -3.3280   19.3150 C   0  0  0  0  0  0  0  0  0  0  0  0
    6.4120   -4.1750   20.2950 C   0  0  0  0  0  0  0  0  0  0  0  0
    5.3640   -4.7580   19.9580 O   0  0  0  0  0  0  0  0  0  0  0  0
    6.9840   -4.3680   21.5730 N   0  0  0  0  0  0  0  0  0  0  0  0
    7.6840   -3.2750   22.1880 C   0  0  0  0  0  0  0  0  0  0  0  0
    6.8350   -2.7170   23.2810 C   0  0  0  0  0  0  0  0  0  0  0  0
    6.5690   -3.8490   24.2420 C   0  0  0  0  0  0  0  0  0  0  0  0
    5.6490   -3.3790   25.3160 C   0  0  0  0  0  0  0  0  0  0  0  0
    4.4610   -3.3790   25.0180 O   0  0  0  0  0  0  0  0  0  0  0  0
    6.1490   -2.9660   26.5460 N   0  0  0  0  0  0  0  0  0  0  0  0
    5.4750   -1.9150   27.2310 C   0  0  2  0  0  0  0  0  0  0  0  0
    4.0890   -1.6680   27.1620 C   0  0  0  0  0  0  0  0  0  0  0  0
    3.1960   -2.6820   26.8700 C   0  0  0  0  0  0  0  0  0  0  0  0
    1.8070   -2.5650   26.7780 C   0  0  0  0  0  0  0  0  0  0  0  0
    1.2520   -1.1940   27.0260 C   0  0  0  0  0  0  0  0  0  0  0  0
   -0.4950   -0.9530   26.9350 Cl  0  0  0  0  0  0  0  0  0  0  0  0
    2.2210   -0.0470   27.3520 C   0  0  0  0  0  0  0  0  0  0  0  0
    3.6590   -0.3810   27.4000 C   0  0  0  0  0  0  0  0  0  0  0  0
    6.2690   -0.5800   26.8590 C   0  0  0  0  0  0  0  0  0  0  0  0
    6.2780   -1.0150   28.1870 C   0  0  2  0  0  0  0  0  0  0  0  0
    7.4210   -1.3450   28.8380 C   0  0  0  0  0  0  0  0  0  0  0  0
    7.7440   -0.7730   30.0430 C   0  0  0  0  0  0  0  0  0  0  0  0
    5.9180   -5.0340   23.5980 C   0  0  0  0  0  0  0  0  0  0  0  0
    6.6310   -5.5010   22.3650 C   0  0  0  0  0  0  0  0  0  0  0  0
  1  2  1  0
  2  3  2  0
  2  4  1  0
  4  5  1  0
  5  6  1  0
  6  7  1  0
  7  8  1  0
  8  9  2  0
  8 10  1  0
 11 10  1  6
 11 12  1  0
 12 13  2  0
 13 14  1  0
 14 15  2  0
 15 16  1  0
 15 17  1  0
 12 18  1  0
 17 18  2  0
 11 19  1  0
 11 20  1  0
 19 20  1  0
 20 21  1  6
 21 22  1  0
  7 23  1  0
  4 24  1  0
 23 24  1  0
M  END
