piperidine-amides-10783-covalent
     RDKit          3D

 22 23  0  0  0  0  0  0  0  0999 V2000
    7.1470   -3.3040   19.2800 C   0  0  0  0  0  0  0  0  0  0  0  0
    6.3460   -4.0620   20.2370 C   0  0  0  0  0  0  0  0  0  0  0  0
    5.2500   -4.5130   19.8750 O   0  0  0  0  0  0  0  0  0  0  0  0
    6.8160   -4.3590   21.5240 N   0  0  0  0  0  0  0  0  0  0  0  0
    6.4990   -5.5850   22.1960 C   0  0  0  0  0  0  0  0  0  0  0  0
    5.8190   -5.1330   23.4550 C   0  0  0  0  0  0  0  0  0  0  0  0
    6.5220   -3.9770   24.1050 C   0  0  0  0  0  0  0  0  0  0  0  0
    5.7330   -3.4800   25.2510 C   0  0  0  0  0  0  0  0  0  0  0  0
    4.8830   -2.5500   25.0980 O   0  0  0  0  0  0  0  0  0  0  0  0
    5.8600   -4.0250   26.5390 N   0  0  0  0  0  0  0  0  0  0  0  0
    7.1760   -4.4180   27.0660 C   0  0  2  0  0  0  0  0  0  0  0  0
    7.0130   -5.5880   27.9500 C   0  0  0  0  0  0  0  0  0  0  0  0
    7.7040   -3.2750   27.9160 C   0  0  1  0  0  0  0  0  0  0  0  0
    8.1360   -2.3290   26.8320 C   0  0  0  0  0  0  0  0  0  0  0  0
    6.6450   -2.5880   28.7120 C   0  0  0  0  0  0  0  0  0  0  0  0
    7.3930   -1.4760   29.3800 C   0  0  0  0  0  0  0  0  0  0  0  0
    6.7710   -0.5900   30.2200 C   0  0  0  0  0  0  0  0  0  0  0  0
    5.4110   -0.6920   30.4820 C   0  0  0  0  0  0  0  0  0  0  0  0
    4.5560   -1.7600   29.8720 C   0  0  0  0  0  0  0  0  0  0  0  0
    5.1450   -2.8040   28.9210 C   0  0  0  0  0  0  0  0  0  0  0  0
    6.7910   -2.8690   23.0610 C   0  0  0  0  0  0  0  0  0  0  0  0
    7.5500   -3.3220   22.2430 C   0  0  0  0  0  0  0  0  0  0  0  0
  1  2  1  0
  2  3  2  0
  2  4  1  0
  4  5  1  0
  5  6  1  0
  6  7  1  0
  7  8  1  0
  8  9  2  0
  8 10  1  0
 10 11  1  0
 11 12  1  1
 11 13  1  0
 13 14  1  6
 13 15  1  0
 15 16  2  0
 16 17  1  0
 17 18  2  0
 18 19  1  0
 15 20  1  0
 19 20  2  0
  7 21  1  0
  4 22  1  0
 21 22  1  0
M  END
