piperidine-amides-12083-covalent
     RDKit          3D

 25 27  0  0  0  0  0  0  0  0999 V2000
    7.0820   -3.3160   19.2460 C   0  0  0  0  0  0  0  0  0  0  0  0
    6.3090   -4.0520   20.2420 C   0  0  0  0  0  0  0  0  0  0  0  0
    5.2650   -4.6040   19.9040 O   0  0  0  0  0  0  0  0  0  0  0  0
    6.7810   -4.1910   21.5960 N   0  0  0  0  0  0  0  0  0  0  0  0
    7.6710   -3.1970   22.1540 C   0  0  0  0  0  0  0  0  0  0  0  0
    7.2150   -2.8610   23.5380 C   0  0  0  0  0  0  0  0  0  0  0  0
    5.9240   -3.6290   23.7110 C   0  0  0  0  0  0  0  0  0  0  0  0
    5.2190   -3.2660   24.9670 C   0  0  0  0  0  0  0  0  0  0  0  0
    4.0160   -3.5170   25.1470 O   0  0  0  0  0  0  0  0  0  0  0  0
    5.9160   -2.6280   25.9970 N   0  0  0  0  0  0  0  0  0  0  0  0
    5.8750   -1.1810   26.0780 C   0  0  0  0  0  0  0  0  0  0  0  0
    5.8030   -0.8000   27.5390 C   0  0  0  0  0  0  0  0  0  0  0  0
    6.3290    0.4160   27.9920 C   0  0  0  0  0  0  0  0  0  0  0  0
    6.2950    0.8120   29.3480 C   0  0  0  0  0  0  0  0  0  0  0  0
    5.7320   -0.0010   30.3020 C   0  0  0  0  0  0  0  0  0  0  0  0
    5.6100    0.2290   31.7360 C   0  0  0  0  0  0  0  0  0  0  0  0
    6.2500    1.2300   32.3730 N   0  0  0  0  0  0  0  0  0  0  0  0
    5.9930    1.2310   33.6350 O   0  0  0  0  0  0  0  0  0  0  0  0
    5.1310    0.1390   33.7450 C   0  0  0  0  0  0  0  0  0  0  0  0
    4.6920   -0.0950   35.0310 C   0  0  0  0  0  0  0  0  0  0  0  0
    4.8680   -0.5080   32.5810 N   0  0  0  0  0  0  0  0  0  0  0  0
    5.1680   -1.2840   29.8560 C   0  0  0  0  0  0  0  0  0  0  0  0
    5.2200   -1.6560   28.4540 C   0  0  0  0  0  0  0  0  0  0  0  0
    6.1230   -5.1290   23.5980 C   0  0  0  0  0  0  0  0  0  0  0  0
    6.5660   -5.4290   22.3040 C   0  0  0  0  0  0  0  0  0  0  0  0
  1  2  1  0
  2  3  2  0
  2  4  1  0
  4  5  1  0
  5  6  1  0
  6  7  1  0
  7  8  1  0
  8  9  2  0
  8 10  1  0
 10 11  1  0
 11 12  1  0
 12 13  2  0
 13 14  1  0
 14 15  2  0
 15 16  1  0
 16 17  2  0
 17 18  1  0
 18 19  1  0
 19 20  1  0
 16 21  1  0
 19 21  2  0
 15 22  1  0
 12 23  1  0
 22 23  2  0
  7 24  1  0
  4 25  1  0
 24 25  1  0
M  END
