piperidine-amides-4624-covalent
     RDKit          3D

 24 25  0  0  0  0  0  0  0  0999 V2000
    7.0560   -3.3280   19.3330 C   0  0  0  0  0  0  0  0  0  0  0  0
    6.3850   -4.1710   20.3510 C   0  0  0  0  0  0  0  0  0  0  0  0
    5.3720   -4.7940   19.9670 O   0  0  0  0  0  0  0  0  0  0  0  0
    6.8890   -4.2980   21.6590 N   0  0  0  0  0  0  0  0  0  0  0  0
    7.6810   -3.2510   22.2270 C   0  0  0  0  0  0  0  0  0  0  0  0
    7.3450   -3.0140   23.6200 C   0  0  0  0  0  0  0  0  0  0  0  0
    6.0560   -3.6260   23.9890 C   0  0  0  0  0  0  0  0  0  0  0  0
    5.6290   -3.3120   25.3770 C   0  0  0  0  0  0  0  0  0  0  0  0
    4.4060   -3.3520   25.6110 O   0  0  0  0  0  0  0  0  0  0  0  0
    6.5260   -2.9930   26.4100 N   0  0  0  0  0  0  0  0  0  0  0  0
    6.4730   -1.6790   27.1070 C   0  0  0  0  0  0  0  0  0  0  0  0
    7.0100   -1.5680   28.4660 C   0  0  0  0  0  0  0  0  0  0  0  0
    6.9660   -0.3190   29.1800 C   0  0  0  0  0  0  0  0  0  0  0  0
    7.5940   -0.1610   30.8050 Cl  0  0  0  0  0  0  0  0  0  0  0  0
    6.4190    0.8000   28.5920 C   0  0  0  0  0  0  0  0  0  0  0  0
    5.8660    0.8880   27.3130 C   0  0  0  0  0  0  0  0  0  0  0  0
    5.3890    2.1160   26.9670 C   0  0  0  0  0  0  0  0  0  0  0  0
    4.6600    2.9360   27.8590 N   0  0  0  0  0  0  0  0  0  0  0  0
    5.7260    2.4240   25.6350 O   0  0  0  0  0  0  0  0  0  0  0  0
    5.9060   -0.4250   26.5610 C   0  0  0  0  0  0  0  0  0  0  0  0
    5.3540   -0.4240   25.2530 O   0  0  0  0  0  0  0  0  0  0  0  0
    4.0810   -1.0160   25.0850 C   0  0  0  0  0  0  0  0  0  0  0  0
    6.0270   -5.1160   23.7280 C   0  0  0  0  0  0  0  0  0  0  0  0
    6.7200   -5.4950   22.4610 C   0  0  0  0  0  0  0  0  0  0  0  0
  1  2  1  0
  2  3  2  0
  2  4  1  0
  4  5  1  0
  5  6  1  0
  6  7  1  0
  7  8  1  0
  8  9  2  0
  8 10  1  0
 10 11  1  0
 11 12  2  0
 12 13  1  0
 13 14  1  0
 13 15  2  0
 15 16  1  0
 16 17  1  0
 17 18  1  0
 17 19  2  0
 11 20  1  0
 16 20  2  0
 20 21  1  0
 21 22  1  0
  7 23  1  0
  4 24  1  0
 23 24  1  0
M  END
