piperidine-amides-27704-covalent
     RDKit          3D

 25 27  0  0  0  0  0  0  0  0999 V2000
    7.0860   -3.3770   19.3600 C   0  0  0  0  0  0  0  0  0  0  0  0
    6.3880   -4.2100   20.3580 C   0  0  0  0  0  0  0  0  0  0  0  0
    5.3430   -4.7680   19.9650 O   0  0  0  0  0  0  0  0  0  0  0  0
    6.9180   -4.4020   21.6440 N   0  0  0  0  0  0  0  0  0  0  0  0
    6.4710   -5.4820   22.4470 C   0  0  0  0  0  0  0  0  0  0  0  0
    5.7680   -5.0720   23.6700 C   0  0  0  0  0  0  0  0  0  0  0  0
    6.2160   -3.7990   24.3030 C   0  0  0  0  0  0  0  0  0  0  0  0
    5.1460   -3.2550   25.1990 C   0  0  0  0  0  0  0  0  0  0  0  0
    4.1400   -2.7680   24.6700 O   0  0  0  0  0  0  0  0  0  0  0  0
    5.2760   -3.2990   26.6070 N   0  0  0  0  0  0  0  0  0  0  0  0
    6.4520   -3.9360   27.0760 C   0  0  0  0  0  0  0  0  0  0  0  0
    6.7060   -3.9700   28.5260 C   0  0  0  0  0  0  0  0  0  0  0  0
    5.5400   -3.9780   29.3190 C   0  0  0  0  0  0  0  0  0  0  0  0
    5.4870   -2.6210   29.8360 N   0  0  0  0  0  0  0  0  0  0  0  0
    6.3370   -1.5220   29.5240 C   0  0  0  0  0  0  0  0  0  0  0  0
    6.1970   -0.3890   30.2950 C   0  0  0  0  0  0  0  0  0  0  0  0
    4.9150    0.0340   30.4190 C   0  0  0  0  0  0  0  0  0  0  0  0
    4.6600    1.2920   29.9200 F   0  0  0  0  0  0  0  0  0  0  0  0
    4.7600    0.2130   31.8110 F   0  0  0  0  0  0  0  0  0  0  0  0
    4.0160   -0.9040   30.0100 C   0  0  0  0  0  0  0  0  0  0  0  0
    4.2670   -2.1280   30.5730 C   0  0  0  0  0  0  0  0  0  0  0  0
    4.4580   -4.3160   28.5720 C   0  0  0  0  0  0  0  0  0  0  0  0
    4.1550   -3.3300   27.4970 C   0  0  0  0  0  0  0  0  0  0  0  0
    6.7080   -2.7520   23.3570 C   0  0  0  0  0  0  0  0  0  0  0  0
    7.6310   -3.3490   22.3340 C   0  0  0  0  0  0  0  0  0  0  0  0
  1  2  1  0
  2  3  2  0
  2  4  1  0
  4  5  1  0
  5  6  1  0
  6  7  1  0
  7  8  1  0
  8  9  2  0
  8 10  1  0
 10 11  1  0
 11 12  1  0
 12 13  1  0
 13 14  1  0
 14 15  1  0
 15 16  1  0
 16 17  1  0
 17 18  1  0
 17 19  1  0
 17 20  1  0
 14 21  1  0
 20 21  1  0
 13 22  1  0
 10 23  1  0
 22 23  1  0
  7 24  1  0
  4 25  1  0
 24 25  1  0
M  END
