piperidine-amides-14013-covalent
     RDKit          3D

 25 27  0  0  0  0  0  0  0  0999 V2000
    7.0970   -3.2710   19.2580 C   0  0  0  0  0  0  0  0  0  0  0  0
    6.3510   -4.0710   20.2730 C   0  0  0  0  0  0  0  0  0  0  0  0
    5.3070   -4.6460   19.9220 O   0  0  0  0  0  0  0  0  0  0  0  0
    6.8620   -4.1950   21.5850 N   0  0  0  0  0  0  0  0  0  0  0  0
    6.7050   -5.4210   22.3440 C   0  0  0  0  0  0  0  0  0  0  0  0
    6.0320   -5.1000   23.6890 C   0  0  0  0  0  0  0  0  0  0  0  0
    6.0350   -3.6240   23.8700 C   0  0  0  0  0  0  0  0  0  0  0  0
    5.5830   -3.1730   25.1990 C   0  0  0  0  0  0  0  0  0  0  0  0
    4.4010   -2.8220   25.2740 O   0  0  0  0  0  0  0  0  0  0  0  0
    6.4460   -3.1640   26.2890 N   0  0  0  0  0  0  0  0  0  0  0  0
    6.1090   -3.5230   27.6150 C   0  0  0  0  0  0  0  0  0  0  0  0
    5.6070   -4.7460   28.0030 C   0  0  0  0  0  0  0  0  0  0  0  0
    4.5060   -4.7240   28.8760 C   0  0  0  0  0  0  0  0  0  0  0  0
    4.0630   -3.5710   29.5170 C   0  0  0  0  0  0  0  0  0  0  0  0
    2.9900   -3.7590   30.3190 N   0  0  0  0  0  0  0  0  0  0  0  0
    2.3190   -2.8750   31.0770 C   0  0  0  0  0  0  0  0  0  0  0  0
    2.7150   -5.1450   30.1850 C   0  0  0  0  0  0  0  0  0  0  0  0
    1.6370   -5.9450   30.8350 C   0  0  0  0  0  0  0  0  0  0  0  0
    1.5220   -7.2910   30.5830 C   0  0  0  0  0  0  0  0  0  0  0  0
    0.2280   -8.1510   31.3900 Cl  0  0  0  0  0  0  0  0  0  0  0  0
    2.4420   -8.0510   29.6550 C   0  0  0  0  0  0  0  0  0  0  0  0
    3.5170   -7.1130   29.0460 C   0  0  0  0  0  0  0  0  0  0  0  0
    3.6470   -5.7670   29.2890 C   0  0  0  0  0  0  0  0  0  0  0  0
    7.3450   -2.9760   23.5770 C   0  0  0  0  0  0  0  0  0  0  0  0
    7.7380   -3.1670   22.1410 C   0  0  0  0  0  0  0  0  0  0  0  0
  1  2  1  0
  2  3  2  0
  2  4  1  0
  4  5  1  0
  5  6  1  0
  6  7  1  0
  7  8  1  0
  8  9  2  0
  8 10  1  0
 10 11  1  0
 11 12  1  0
 12 13  1  0
 13 14  2  0
 14 15  1  0
 15 16  1  0
 15 17  1  0
 17 18  1  0
 18 19  2  0
 19 20  1  0
 19 21  1  0
 21 22  2  0
 13 23  1  0
 17 23  2  0
 22 23  1  0
  7 24  1  0
  4 25  1  0
 24 25  1  0
M  END
