piperidine-amides-3970-covalent
     RDKit          3D

 29 31  0  0  0  0  0  0  0  0999 V2000
    7.0240   -3.3650   19.3490 C   0  0  0  0  0  0  0  0  0  0  0  0
    6.3930   -4.2110   20.3800 C   0  0  0  0  0  0  0  0  0  0  0  0
    5.4070   -4.8890   19.9970 O   0  0  0  0  0  0  0  0  0  0  0  0
    6.8950   -4.2950   21.7120 N   0  0  0  0  0  0  0  0  0  0  0  0
    6.6130   -5.4690   22.4650 C   0  0  0  0  0  0  0  0  0  0  0  0
    6.0240   -5.1630   23.7580 C   0  0  0  0  0  0  0  0  0  0  0  0
    5.9440   -3.7140   23.9890 C   0  0  0  0  0  0  0  0  0  0  0  0
    5.3900   -3.3650   25.3530 C   0  0  0  0  0  0  0  0  0  0  0  0
    4.1570   -3.4030   25.4870 O   0  0  0  0  0  0  0  0  0  0  0  0
    6.1520   -2.9900   26.4860 N   0  0  0  0  0  0  0  0  0  0  0  0
    6.5480   -1.6820   26.8610 C   0  0  1  0  0  0  0  0  0  0  0  0
    5.7240   -0.5770   26.3810 C   0  0  0  0  0  0  0  0  0  0  0  0
    5.4870    0.1730   27.6500 C   0  0  0  0  0  0  0  0  0  0  0  0
    5.7590   -0.9960   28.4750 N   0  0  0  0  0  0  0  0  0  0  0  0
    5.5280   -0.5970   29.8410 C   0  0  0  0  0  0  0  0  0  0  0  0
    4.5750   -1.5900   30.5280 C   0  0  0  0  0  0  0  0  0  0  0  0
    4.4120   -2.5880   29.4110 C   0  0  0  0  0  0  0  0  0  0  0  0
    3.4620   -3.6610   29.9680 C   0  0  0  0  0  0  0  0  0  0  0  0
    2.8180   -3.7310   31.3270 C   0  0  0  0  0  0  0  0  0  0  0  0
    1.9620   -4.7850   31.6950 O   0  0  0  0  0  0  0  0  0  0  0  0
    1.3410   -4.7330   32.9670 C   0  0  0  0  0  0  0  0  0  0  0  0
    3.1540   -2.6050   32.2480 C   0  0  0  0  0  0  0  0  0  0  0  0
    4.0560   -1.5030   31.8420 C   0  0  0  0  0  0  0  0  0  0  0  0
    4.3920   -0.4460   32.6670 O   0  0  0  0  0  0  0  0  0  0  0  0
    4.8040   -0.6540   34.0210 C   0  0  0  0  0  0  0  0  0  0  0  0
    7.1440   -1.4830   28.1320 C   0  0  0  0  0  0  0  0  0  0  0  0
    7.4560   -1.1830   29.4680 O   0  0  0  0  0  0  0  0  0  0  0  0
    7.2460   -3.0530   23.6700 C   0  0  0  0  0  0  0  0  0  0  0  0
    7.6360   -3.1990   22.3260 C   0  0  0  0  0  0  0  0  0  0  0  0
  1  2  1  0
  2  3  2  0
  2  4  1  0
  4  5  1  0
  5  6  1  0
  6  7  1  0
  7  8  1  0
  8  9  2  0
  8 10  1  0
 11 10  1  1
 11 12  1  0
 12 13  1  0
 13 14  1  0
 14 15  1  0
 15 16  1  0
 16 17  2  0
 17 18  1  0
 18 19  2  0
 19 20  1  0
 20 21  1  0
 19 22  1  0
 16 23  1  0
 22 23  2  0
 23 24  1  0
 24 25  1  0
 11 26  1  0
 14 26  1  0
 26 27  2  0
  7 28  1  0
  4 29  1  0
 28 29  1  0
M  END
