piperidine-amides-7230-covalent
     RDKit          3D

 21 22  0  0  0  0  0  0  0  0999 V2000
    7.0360   -3.1620   19.0540 C   0  0  0  0  0  0  0  0  0  0  0  0
    6.1560   -3.7750   20.0560 C   0  0  0  0  0  0  0  0  0  0  0  0
    5.0710   -4.2530   19.6770 O   0  0  0  0  0  0  0  0  0  0  0  0
    6.5140   -3.8610   21.3780 N   0  0  0  0  0  0  0  0  0  0  0  0
    7.1010   -2.7160   22.0460 C   0  0  0  0  0  0  0  0  0  0  0  0
    6.1350   -2.1940   23.0800 C   0  0  0  0  0  0  0  0  0  0  0  0
    5.5780   -3.3040   23.9340 C   0  0  0  0  0  0  0  0  0  0  0  0
    4.6530   -2.8320   24.9910 C   0  0  0  0  0  0  0  0  0  0  0  0
    4.0220   -1.7820   24.8040 O   0  0  0  0  0  0  0  0  0  0  0  0
    4.4730   -3.5230   26.2030 N   0  0  0  0  0  0  0  0  0  0  0  0
    5.6400   -4.1180   26.7240 C   0  0  0  0  0  0  0  0  0  0  0  0
    6.2890   -3.0750   27.6180 C   0  0  0  0  0  0  0  0  0  0  0  0
    5.4740   -5.4120   27.4340 C   0  0  0  0  0  0  0  0  0  0  0  0
    6.3880   -4.4250   25.4440 C   0  0  0  0  0  0  0  0  0  0  0  0
    6.3910   -5.4740   24.6220 N   0  0  0  0  0  0  0  0  0  0  0  0
    7.1870   -5.4670   23.5680 C   0  0  0  0  0  0  0  0  0  0  0  0
    7.2410   -6.5220   22.6760 C   0  0  0  0  0  0  0  0  0  0  0  0
    7.9740   -4.3540   23.3750 C   0  0  0  0  0  0  0  0  0  0  0  0
    7.5390   -3.3810   24.7120 S   0  0  0  0  0  0  0  0  0  0  0  0
    4.8530   -4.3140   23.0570 C   0  0  0  0  0  0  0  0  0  0  0  0
    5.8800   -4.9240   22.1080 C   0  0  0  0  0  0  0  0  0  0  0  0
  1  2  1  0
  2  3  2  0
  2  4  1  0
  4  5  1  0
  5  6  1  0
  6  7  1  0
  7  8  1  0
  8  9  2  0
  8 10  1  0
 11 10  1  0
 11 12  1  0
 11 13  1  0
 11 14  1  0
 14 15  2  0
 15 16  1  0
 16 17  1  0
 16 18  2  0
 14 19  1  0
 18 19  1  0
  7 20  1  0
  4 21  1  0
 20 21  1  0
M  END
