piperidine-amides-2528-covalent
     RDKit          3D

 26 28  0  0  0  0  0  0  0  0999 V2000
    7.0810   -3.3520   19.2980 C   0  0  0  0  0  0  0  0  0  0  0  0
    6.3590   -4.1460   20.3200 C   0  0  0  0  0  0  0  0  0  0  0  0
    5.3500   -4.7490   19.9550 O   0  0  0  0  0  0  0  0  0  0  0  0
    6.8670   -4.2220   21.6200 N   0  0  0  0  0  0  0  0  0  0  0  0
    7.7200   -3.1940   22.1600 C   0  0  0  0  0  0  0  0  0  0  0  0
    7.0510   -2.6030   23.3560 C   0  0  0  0  0  0  0  0  0  0  0  0
    6.5990   -3.7390   24.2610 C   0  0  0  0  0  0  0  0  0  0  0  0
    5.8190   -3.1630   25.3810 C   0  0  0  0  0  0  0  0  0  0  0  0
    4.6490   -2.8070   25.1870 O   0  0  0  0  0  0  0  0  0  0  0  0
    6.3900   -3.0380   26.6650 N   0  0  0  0  0  0  0  0  0  0  0  0
    6.4280   -1.7670   27.3790 C   0  0  0  0  0  0  0  0  0  0  0  0
    5.7200   -0.6380   26.7120 C   0  0  0  0  0  0  0  0  0  0  0  0
    5.6100    0.5980   27.1720 C   0  0  0  0  0  0  0  0  0  0  0  0
    6.2220    0.7470   28.3470 C   0  0  0  0  0  0  0  0  0  0  0  0
    6.1500    2.0050   28.9080 O   0  0  0  0  0  0  0  0  0  0  0  0
    5.2370    2.0310   29.9390 C   0  0  0  0  0  0  0  0  0  0  0  0
    5.5200    1.0920   31.1020 C   0  0  0  0  0  0  0  0  0  0  0  0
    4.4130    1.2480   32.1400 C   0  0  0  0  0  0  0  0  0  0  0  0
    3.2810    2.2400   31.8850 C   0  0  0  0  0  0  0  0  0  0  0  0
    2.3660    2.1680   33.0620 C   0  0  0  0  0  0  0  0  0  0  0  0
    3.1270    2.9990   30.8640 N   0  0  0  0  0  0  0  0  0  0  0  0
    4.0740    2.9410   29.8500 C   0  0  0  0  0  0  0  0  0  0  0  0
    6.8960   -0.2590   29.0090 C   0  0  0  0  0  0  0  0  0  0  0  0
    7.1570   -1.7300   28.6910 C   0  0  0  0  0  0  0  0  0  0  0  0
    5.7220   -4.7500   23.5200 C   0  0  0  0  0  0  0  0  0  0  0  0
    6.4980   -5.3010   22.5180 C   0  0  0  0  0  0  0  0  0  0  0  0
  1  2  1  0
  2  3  2  0
  2  4  1  0
  4  5  1  0
  5  6  1  0
  6  7  1  0
  7  8  1  0
  8  9  2  0
  8 10  1  0
 10 11  1  0
 11 12  2  0
 12 13  1  0
 13 14  2  0
 14 15  1  0
 15 16  1  0
 16 17  2  0
 17 18  1  0
 18 19  2  0
 19 20  1  0
 19 21  1  0
 16 22  1  0
 21 22  2  0
 14 23  1  0
 11 24  1  0
 23 24  2  0
  7 25  1  0
  4 26  1  0
 25 26  1  0
M  END
