piperidine-amides-12702-covalent
     RDKit          3D

 22 23  0  0  0  0  0  0  0  0999 V2000
    7.1250   -3.2660   19.1930 C   0  0  0  0  0  0  0  0  0  0  0  0
    6.3670   -4.0330   20.2080 C   0  0  0  0  0  0  0  0  0  0  0  0
    5.2680   -4.5040   19.8570 O   0  0  0  0  0  0  0  0  0  0  0  0
    6.9010   -4.2590   21.4790 N   0  0  0  0  0  0  0  0  0  0  0  0
    6.4210   -5.3410   22.2680 C   0  0  0  0  0  0  0  0  0  0  0  0
    5.9120   -4.9330   23.5800 C   0  0  0  0  0  0  0  0  0  0  0  0
    6.5990   -3.7570   24.1670 C   0  0  0  0  0  0  0  0  0  0  0  0
    5.8810   -3.2870   25.3760 C   0  0  0  0  0  0  0  0  0  0  0  0
    4.6390   -3.4150   25.4130 O   0  0  0  0  0  0  0  0  0  0  0  0
    6.5820   -2.6990   26.4500 N   0  0  0  0  0  0  0  0  0  0  0  0
    6.3010   -3.0070   27.8750 C   0  0  0  0  0  0  0  0  0  0  0  0
    5.9130   -1.7750   28.6490 C   0  0  2  0  0  0  0  0  0  0  0  0
    6.6800   -1.3680   29.5800 O   0  0  0  0  0  0  0  0  0  0  0  0
    7.8870   -0.9600   29.2680 C   0  0  0  0  0  0  0  0  0  0  0  0
    8.5650    0.1170   29.7960 C   0  0  0  0  0  0  0  0  0  0  0  0
    8.7290    0.1760   31.1430 O   0  0  0  0  0  0  0  0  0  0  0  0
    4.6690   -1.6470   29.2710 C   0  0  0  0  0  0  0  0  0  0  0  0
    4.0120   -0.4700   29.0460 C   0  0  0  0  0  0  0  0  0  0  0  0
    4.5780    0.1700   27.9660 O   0  0  0  0  0  0  0  0  0  0  0  0
    5.6590   -0.6600   27.6400 C   0  0  0  0  0  0  0  0  0  0  0  0
    6.9410   -2.6860   23.2160 C   0  0  0  0  0  0  0  0  0  0  0  0
    7.6320   -3.1970   22.1290 C   0  0  0  0  0  0  0  0  0  0  0  0
  1  2  1  0
  2  3  2  0
  2  4  1  0
  4  5  1  0
  5  6  1  0
  6  7  1  0
  7  8  1  0
  8  9  2  0
  8 10  1  0
 10 11  1  0
 12 11  1  6
 12 13  1  0
 13 14  1  0
 14 15  1  0
 15 16  1  0
 12 17  1  0
 17 18  1  0
 18 19  1  0
 12 20  1  0
 19 20  1  0
  7 21  1  0
  4 22  1  0
 21 22  1  0
M  END
