piperidine-amides-21559-covalent
     RDKit          3D

 23 24  0  0  0  0  0  0  0  0999 V2000
    7.0820   -3.3330   19.3030 C   0  0  0  0  0  0  0  0  0  0  0  0
    6.3400   -4.0980   20.3060 C   0  0  0  0  0  0  0  0  0  0  0  0
    5.2810   -4.6540   19.9190 O   0  0  0  0  0  0  0  0  0  0  0  0
    6.8360   -4.2260   21.6020 N   0  0  0  0  0  0  0  0  0  0  0  0
    7.6760   -3.1930   22.1740 C   0  0  0  0  0  0  0  0  0  0  0  0
    7.0180   -2.6990   23.4250 C   0  0  0  0  0  0  0  0  0  0  0  0
    6.6020   -3.8530   24.2860 C   0  0  0  0  0  0  0  0  0  0  0  0
    5.8110   -3.3790   25.4570 C   0  0  0  0  0  0  0  0  0  0  0  0
    4.5710   -3.2940   25.3160 O   0  0  0  0  0  0  0  0  0  0  0  0
    6.3570   -3.0160   26.7160 N   0  0  0  0  0  0  0  0  0  0  0  0
    6.2310   -3.9040   27.8600 C   0  0  0  0  0  0  0  0  0  0  0  0
    5.9410   -5.3600   27.5330 C   0  0  0  0  0  0  0  0  0  0  0  0
    6.2480   -6.3840   28.3940 C   0  0  0  0  0  0  0  0  0  0  0  0
    6.3650   -1.6520   27.1930 C   0  0  0  0  0  0  0  0  0  0  0  0
    6.9360   -1.5260   28.4490 C   0  0  0  0  0  0  0  0  0  0  0  0
    7.0420   -0.3480   29.1120 C   0  0  0  0  0  0  0  0  0  0  0  0
    6.5830    0.8070   28.5710 C   0  0  0  0  0  0  0  0  0  0  0  0
    5.9360    0.8510   27.2080 C   0  0  0  0  0  0  0  0  0  0  0  0
    5.8520   -0.5310   26.5150 C   0  0  0  0  0  0  0  0  0  0  0  0
    5.3510   -0.7180   25.3860 O   0  0  0  0  0  0  0  0  0  0  0  0
    4.0090   -0.8940   25.0590 C   0  0  0  0  0  0  0  0  0  0  0  0
    5.7650   -4.8490   23.5200 C   0  0  0  0  0  0  0  0  0  0  0  0
    6.4970   -5.3550   22.4640 C   0  0  0  0  0  0  0  0  0  0  0  0
  1  2  1  0
  2  3  2  0
  2  4  1  0
  4  5  1  0
  5  6  1  0
  6  7  1  0
  7  8  1  0
  8  9  2  0
  8 10  1  0
 10 11  1  0
 11 12  1  0
 12 13  1  0
 10 14  1  0
 14 15  2  0
 15 16  1  0
 16 17  2  0
 17 18  1  0
 14 19  1  0
 18 19  2  0
 19 20  1  0
 20 21  1  0
  7 22  1  0
  4 23  1  0
 22 23  1  0
M  END
