piperidine-amides-29956-covalent
     RDKit          3D

 27 29  0  0  0  0  0  0  0  0999 V2000
    7.0570   -3.3170   19.3500 C   0  0  0  0  0  0  0  0  0  0  0  0
    6.3510   -4.1410   20.3220 C   0  0  0  0  0  0  0  0  0  0  0  0
    5.3730   -4.8000   19.9730 O   0  0  0  0  0  0  0  0  0  0  0  0
    6.8170   -4.2290   21.6820 N   0  0  0  0  0  0  0  0  0  0  0  0
    7.7070   -3.2070   22.2000 C   0  0  0  0  0  0  0  0  0  0  0  0
    7.5480   -3.0720   23.6830 C   0  0  0  0  0  0  0  0  0  0  0  0
    6.1720   -3.6120   24.0040 C   0  0  0  0  0  0  0  0  0  0  0  0
    5.7740   -3.3140   25.4080 C   0  0  0  0  0  0  0  0  0  0  0  0
    4.6160   -3.5520   25.8130 O   0  0  0  0  0  0  0  0  0  0  0  0
    6.6990   -2.7270   26.3170 N   0  0  0  0  0  0  0  0  0  0  0  0
    7.1350   -3.5360   27.4280 C   0  0  0  0  0  0  0  0  0  0  0  0
    7.0110   -2.5390   28.5730 C   0  0  0  0  0  0  0  0  0  0  0  0
    5.8210   -2.3610   29.2790 C   0  0  0  0  0  0  0  0  0  0  0  0
    5.7570   -1.4120   30.3170 C   0  0  0  0  0  0  0  0  0  0  0  0
    6.8700   -0.6630   30.6350 C   0  0  0  0  0  0  0  0  0  0  0  0
    8.1050   -0.8040   29.9460 N   0  0  0  0  0  0  0  0  0  0  0  0
    8.1520   -1.7770   28.8910 C   0  0  0  0  0  0  0  0  0  0  0  0
    6.3970   -1.3830   26.7200 C   0  0  0  0  0  0  0  0  0  0  0  0
    5.5790   -0.4560   26.1010 C   0  0  0  0  0  0  0  0  0  0  0  0
    5.3370    0.8240   26.5910 C   0  0  0  0  0  0  0  0  0  0  0  0
    5.9830    1.2070   27.8300 C   0  0  0  0  0  0  0  0  0  0  0  0
    5.7090    2.4740   28.2660 F   0  0  0  0  0  0  0  0  0  0  0  0
    6.7970    0.3140   28.4580 C   0  0  0  0  0  0  0  0  0  0  0  0
    6.9930   -0.9490   27.9010 C   0  0  0  0  0  0  0  0  0  0  0  0
    7.8380   -1.7380   28.6340 F   0  0  0  0  0  0  0  0  0  0  0  0
    6.1010   -5.1090   23.7900 C   0  0  0  0  0  0  0  0  0  0  0  0
    6.6930   -5.4660   22.4150 C   0  0  0  0  0  0  0  0  0  0  0  0
  1  2  1  0
  2  3  2  0
  2  4  1  0
  4  5  1  0
  5  6  1  0
  6  7  1  0
  7  8  1  0
  8  9  2  0
  8 10  1  0
 10 11  1  0
 11 12  1  0
 12 13  2  0
 13 14  1  0
 14 15  2  0
 15 16  1  0
 12 17  1  0
 16 17  2  0
 10 18  1  0
 18 19  2  0
 19 20  1  0
 20 21  2  0
 21 22  1  0
 21 23  1  0
 18 24  1  0
 23 24  2  0
 24 25  1  0
  7 26  1  0
  4 27  1  0
 26 27  1  0
M  END
