piperidine-amides-8105-covalent
     RDKit          3D

 26 28  0  0  0  0  0  0  0  0999 V2000
    7.0260   -3.3150   19.3290 C   0  0  0  0  0  0  0  0  0  0  0  0
    6.3460   -4.1510   20.3220 C   0  0  0  0  0  0  0  0  0  0  0  0
    5.3500   -4.8010   19.9600 O   0  0  0  0  0  0  0  0  0  0  0  0
    6.8350   -4.2480   21.6490 N   0  0  0  0  0  0  0  0  0  0  0  0
    7.6360   -3.1770   22.1770 C   0  0  0  0  0  0  0  0  0  0  0  0
    7.4640   -3.1110   23.6610 C   0  0  0  0  0  0  0  0  0  0  0  0
    6.0880   -3.6650   23.9490 C   0  0  0  0  0  0  0  0  0  0  0  0
    5.6390   -3.2480   25.3180 C   0  0  0  0  0  0  0  0  0  0  0  0
    4.4330   -3.3160   25.5720 O   0  0  0  0  0  0  0  0  0  0  0  0
    6.6220   -2.8080   26.1900 N   0  0  0  0  0  0  0  0  0  0  0  0
    6.4980   -1.6240   26.9740 C   0  0  0  0  0  0  0  0  0  0  0  0
    5.9660   -0.3950   26.5690 C   0  0  0  0  0  0  0  0  0  0  0  0
    5.8980    0.6970   27.4170 C   0  0  0  0  0  0  0  0  0  0  0  0
    6.3500    0.6720   28.7390 C   0  0  0  0  0  0  0  0  0  0  0  0
    6.1800    1.8760   29.4060 O   0  0  0  0  0  0  0  0  0  0  0  0
    6.1270    1.7150   30.7690 C   0  0  0  0  0  0  0  0  0  0  0  0
    5.5040    2.6770   31.8060 C   0  0  0  0  0  0  0  0  0  0  0  0
    5.9510    2.4800   33.2270 C   0  0  0  0  0  0  0  0  0  0  0  0
    5.3200    3.4420   34.2100 C   0  0  0  0  0  0  0  0  0  0  0  0
    4.3350    4.4560   33.6060 C   0  0  0  0  0  0  0  0  0  0  0  0
    4.0420    4.4940   32.2810 C   0  0  0  0  0  0  0  0  0  0  0  0
    4.5940    3.6400   31.3680 C   0  0  0  0  0  0  0  0  0  0  0  0
    6.8940   -0.4640   29.2660 C   0  0  0  0  0  0  0  0  0  0  0  0
    6.9790   -1.6550   28.3780 C   0  0  0  0  0  0  0  0  0  0  0  0
    6.1450   -5.1770   23.7900 C   0  0  0  0  0  0  0  0  0  0  0  0
    6.6020   -5.4910   22.3590 C   0  0  0  0  0  0  0  0  0  0  0  0
  1  2  1  0
  2  3  2  0
  2  4  1  0
  4  5  1  0
  5  6  1  0
  6  7  1  0
  7  8  1  0
  8  9  2  0
  8 10  1  0
 10 11  1  0
 11 12  2  0
 12 13  1  0
 13 14  2  0
 14 15  1  0
 15 16  1  0
 16 17  1  0
 17 18  2  0
 18 19  1  0
 19 20  2  0
 20 21  1  0
 17 22  1  0
 21 22  2  0
 14 23  1  0
 11 24  1  0
 23 24  2  0
  7 25  1  0
  4 26  1  0
 25 26  1  0
M  END
