piperidine-amides-8235-covalent
     RDKit          3D

 25 26  0  0  0  0  0  0  0  0999 V2000
    7.0950   -3.2940   19.2560 C   0  0  0  0  0  0  0  0  0  0  0  0
    6.3430   -4.0360   20.2650 C   0  0  0  0  0  0  0  0  0  0  0  0
    5.2990   -4.6080   19.9060 O   0  0  0  0  0  0  0  0  0  0  0  0
    6.8220   -4.1340   21.5960 N   0  0  0  0  0  0  0  0  0  0  0  0
    6.5740   -5.3670   22.2960 C   0  0  0  0  0  0  0  0  0  0  0  0
    6.1690   -5.0990   23.7190 C   0  0  0  0  0  0  0  0  0  0  0  0
    6.0710   -3.5960   23.8900 C   0  0  0  0  0  0  0  0  0  0  0  0
    5.5850   -3.2140   25.2540 C   0  0  0  0  0  0  0  0  0  0  0  0
    4.5700   -2.5250   25.2870 O   0  0  0  0  0  0  0  0  0  0  0  0
    6.2770   -3.6490   26.3760 N   0  0  0  0  0  0  0  0  0  0  0  0
    5.7060   -4.6120   27.2550 C   0  0  0  0  0  0  0  0  0  0  0  0
    4.3170   -4.5800   27.4200 C   0  0  0  0  0  0  0  0  0  0  0  0
    6.0490   -5.9660   26.8070 C   0  0  0  0  0  0  0  0  0  0  0  0
    6.3640   -4.5040   28.5810 C   0  0  0  0  0  0  0  0  0  0  0  0
    6.9410   -3.2500   28.6880 O   0  0  0  0  0  0  0  0  0  0  0  0
    6.3330   -5.5270   29.5500 N   0  0  0  0  0  0  0  0  0  0  0  0
    5.5650   -6.7700   29.3980 C   0  0  0  0  0  0  0  0  0  0  0  0
    4.0910   -6.6020   29.8670 C   0  0  0  0  0  0  0  0  0  0  0  0
    4.0180   -6.3590   31.3360 C   0  0  0  0  0  0  0  0  0  0  0  0
    3.4880   -7.5840   32.0350 C   0  0  0  0  0  0  0  0  0  0  0  0
    2.1550   -7.9690   31.3530 C   0  0  0  0  0  0  0  0  0  0  0  0
    2.1230   -7.9330   29.9860 C   0  0  0  0  0  0  0  0  0  0  0  0
    3.2760   -7.5780   29.3240 C   0  0  0  0  0  0  0  0  0  0  0  0
    7.3650   -2.9330   23.5930 C   0  0  0  0  0  0  0  0  0  0  0  0
    7.7130   -3.1400   22.1540 C   0  0  0  0  0  0  0  0  0  0  0  0
  1  2  1  0
  2  3  2  0
  2  4  1  0
  4  5  1  0
  5  6  1  0
  6  7  1  0
  7  8  1  0
  8  9  2  0
  8 10  1  0
 10 11  1  0
 11 12  1  0
 11 13  1  0
 11 14  1  0
 14 15  2  0
 14 16  1  0
 16 17  1  0
 17 18  1  0
 18 19  1  0
 19 20  1  0
 20 21  1  0
 21 22  1  0
 18 23  1  0
 22 23  1  0
  7 24  1  0
  4 25  1  0
 24 25  1  0
M  END
