piperidine-amides-6306-covalent
     RDKit          3D

 26 27  0  0  0  0  0  0  0  0999 V2000
    7.2250   -3.1720   19.1180 C   0  0  0  0  0  0  0  0  0  0  0  0
    6.4190   -3.8490   20.1390 C   0  0  0  0  0  0  0  0  0  0  0  0
    5.3270   -4.3860   19.8350 O   0  0  0  0  0  0  0  0  0  0  0  0
    6.8880   -3.9560   21.4490 N   0  0  0  0  0  0  0  0  0  0  0  0
    6.3710   -5.0170   22.2380 C   0  0  0  0  0  0  0  0  0  0  0  0
    5.4990   -4.2870   23.2470 C   0  0  0  0  0  0  0  0  0  0  0  0
    6.4870   -3.6350   24.1700 C   0  0  0  0  0  0  0  0  0  0  0  0
    5.7860   -3.0890   25.3620 C   0  0  0  0  0  0  0  0  0  0  0  0
    4.9950   -2.1390   25.1930 O   0  0  0  0  0  0  0  0  0  0  0  0
    5.9920   -3.6530   26.6530 N   0  0  0  0  0  0  0  0  0  0  0  0
    5.3010   -4.8760   26.9820 C   0  0  0  0  0  0  0  0  0  0  0  0
    5.2890   -5.6190   25.6660 C   0  0  0  0  0  0  0  0  0  0  0  0
    4.2520   -5.6500   24.7630 C   0  0  0  0  0  0  0  0  0  0  0  0
    4.4320   -6.3500   23.5880 C   0  0  0  0  0  0  0  0  0  0  0  0
    5.6520   -6.9830   23.3730 C   0  0  0  0  0  0  0  0  0  0  0  0
    6.6950   -7.0010   24.2210 C   0  0  0  0  0  0  0  0  0  0  0  0
    7.9090   -7.5860   24.1010 O   0  0  0  0  0  0  0  0  0  0  0  0
    9.0800   -7.7220   24.8520 C   0  0  0  0  0  0  0  0  0  0  0  0
    9.5220   -9.0420   25.5190 C   0  0  0  0  0  0  0  0  0  0  0  0
    8.6870  -10.5490   24.6780 O   0  0  0  0  0  0  0  0  0  0  0  0
   10.0530   -9.6550   26.9530 N   0  0  0  0  0  0  0  0  0  0  0  0
    9.9610  -10.9860   28.2710 C   0  0  0  0  0  0  0  0  0  0  0  0
    8.8250  -11.1160   29.1940 C   0  0  0  0  0  0  0  0  0  0  0  0
    6.4150   -6.2980   25.3550 C   0  0  0  0  0  0  0  0  0  0  0  0
    7.0820   -2.4740   23.3700 C   0  0  0  0  0  0  0  0  0  0  0  0
    7.7340   -2.9510   22.0770 C   0  0  0  0  0  0  0  0  0  0  0  0
  1  2  1  0
  2  3  2  0
  2  4  1  0
  4  5  1  0
  5  6  1  0
  6  7  1  0
  7  8  1  0
  8  9  2  0
  8 10  1  0
 10 11  1  0
 11 12  1  0
 12 13  2  0
 13 14  1  0
 14 15  2  0
 15 16  1  0
 16 17  1  0
 17 18  1  0
 18 19  1  0
 19 20  2  0
 19 21  1  0
 21 22  1  0
 22 23  1  0
 12 24  1  0
 16 24  2  0
  7 25  1  0
  4 26  1  0
 25 26  1  0
M  END
