piperidine-amides-25239-covalent
     RDKit          3D

 25 28  0  0  0  0  0  0  0  0999 V2000
    7.0470   -3.3610   19.3600 C   0  0  0  0  0  0  0  0  0  0  0  0
    6.4050   -4.2450   20.3630 C   0  0  0  0  0  0  0  0  0  0  0  0
    5.4000   -4.8560   19.9890 O   0  0  0  0  0  0  0  0  0  0  0  0
    6.9690   -4.4050   21.6440 N   0  0  0  0  0  0  0  0  0  0  0  0
    6.8370   -5.6580   22.3590 C   0  0  0  0  0  0  0  0  0  0  0  0
    6.2350   -5.3780   23.7000 C   0  0  0  0  0  0  0  0  0  0  0  0
    6.0230   -3.8820   23.7270 C   0  0  0  0  0  0  0  0  0  0  0  0
    5.3060   -3.4470   24.9340 C   0  0  0  0  0  0  0  0  0  0  0  0
    4.2430   -2.8430   24.7710 O   0  0  0  0  0  0  0  0  0  0  0  0
    5.6980   -3.6440   26.2520 N   0  0  0  0  0  0  0  0  0  0  0  0
    4.5580   -4.1610   27.0130 C   0  0  0  0  0  0  0  0  0  0  0  0
    4.9850   -4.5010   28.4060 C   0  0  1  0  0  0  0  0  0  0  0  0
    4.4190   -5.3730   29.2580 C   0  0  0  0  0  0  0  0  0  0  0  0
    5.2700   -6.4130   29.3950 C   0  0  0  0  0  0  0  0  0  0  0  0
    6.3210   -6.2690   28.5400 C   0  0  0  0  0  0  0  0  0  0  0  0
    6.2650   -5.0230   28.1400 N   0  0  0  0  0  0  0  0  0  0  0  0
    6.8450   -4.0630   29.0100 C   0  0  0  0  0  0  0  0  0  0  0  0
    6.6570   -2.7540   28.3590 C   0  0  0  0  0  0  0  0  0  0  0  0
    7.1040   -1.6380   29.3010 C   0  0  0  0  0  0  0  0  0  0  0  0
    6.9520   -0.2680   28.7610 C   0  0  0  0  0  0  0  0  0  0  0  0
    6.4130   -0.0580   27.4140 C   0  0  0  0  0  0  0  0  0  0  0  0
    6.0010   -1.2280   26.5690 C   0  0  0  0  0  0  0  0  0  0  0  0
    6.1400   -2.6140   27.1010 C   0  0  0  0  0  0  0  0  0  0  0  0
    7.3340   -3.1500   23.5520 C   0  0  0  0  0  0  0  0  0  0  0  0
    7.7680   -3.3250   22.2520 C   0  0  0  0  0  0  0  0  0  0  0  0
  1  2  1  0
  2  3  2  0
  2  4  1  0
  4  5  1  0
  5  6  1  0
  6  7  1  0
  7  8  1  0
  8  9  2  0
  8 10  1  0
 10 11  1  0
 12 11  1  6
 12 13  1  0
 13 14  1  0
 14 15  1  0
 12 16  1  0
 15 16  1  0
 16 17  1  0
 17 18  1  0
 18 19  1  0
 19 20  2  0
 20 21  1  0
 21 22  2  0
 10 23  1  0
 18 23  2  0
 22 23  1  0
  7 24  1  0
  4 25  1  0
 24 25  1  0
M  END
