piperidine-amides-27554-covalent
     RDKit          3D

 21 23  0  0  0  0  0  0  0  0999 V2000
    7.0220   -3.3560   19.4260 C   0  0  0  0  0  0  0  0  0  0  0  0
    6.3870   -4.2190   20.4300 C   0  0  0  0  0  0  0  0  0  0  0  0
    5.4230   -4.9140   20.0040 O   0  0  0  0  0  0  0  0  0  0  0  0
    6.8560   -4.2940   21.7620 N   0  0  0  0  0  0  0  0  0  0  0  0
    6.7070   -5.5080   22.5290 C   0  0  0  0  0  0  0  0  0  0  0  0
    6.0560   -5.1380   23.8360 C   0  0  0  0  0  0  0  0  0  0  0  0
    5.8850   -3.6460   23.9360 C   0  0  0  0  0  0  0  0  0  0  0  0
    5.0840   -3.2870   25.1720 C   0  0  0  0  0  0  0  0  0  0  0  0
    3.8780   -3.5810   25.1120 O   0  0  0  0  0  0  0  0  0  0  0  0
    5.4870   -2.6700   26.3910 N   0  0  0  0  0  0  0  0  0  0  0  0
    4.4890   -2.0840   27.2610 C   0  0  0  0  0  0  0  0  0  0  0  0
    4.2750   -2.8250   28.6020 C   0  0  0  0  0  0  0  0  0  0  0  0
    5.0990   -4.0090   28.6170 N   0  0  0  0  0  0  0  0  0  0  0  0
    4.8250   -5.0160   29.4060 N   0  0  0  0  0  0  0  0  0  0  0  0
    5.7630   -5.9560   29.1880 C   0  0  0  0  0  0  0  0  0  0  0  0
    5.7910   -7.6070   30.0910 Br  0  0  0  0  0  0  0  0  0  0  0  0
    6.6270   -5.4990   28.2460 N   0  0  0  0  0  0  0  0  0  0  0  0
    6.1410   -4.1990   27.8920 C   0  0  0  0  0  0  0  0  0  0  0  0
    6.5770   -3.2490   26.9850 C   0  0  0  0  0  0  0  0  0  0  0  0
    7.2270   -3.0200   23.7040 C   0  0  0  0  0  0  0  0  0  0  0  0
    7.5910   -3.2020   22.3630 C   0  0  0  0  0  0  0  0  0  0  0  0
  1  2  1  0
  2  3  2  0
  2  4  1  0
  4  5  1  0
  5  6  1  0
  6  7  1  0
  7  8  1  0
  8  9  2  0
  8 10  1  0
 10 11  1  0
 11 12  1  0
 12 13  1  0
 13 14  1  0
 14 15  2  0
 15 16  1  0
 15 17  1  0
 13 18  1  0
 17 18  2  0
 10 19  1  0
 18 19  1  0
  7 20  1  0
  4 21  1  0
 20 21  1  0
M  END
