piperidine-amides-25205-covalent
     RDKit          3D

 25 28  0  0  0  0  0  0  0  0999 V2000
    7.0380   -3.3180   19.3450 C   0  0  0  0  0  0  0  0  0  0  0  0
    6.3420   -4.1920   20.3220 C   0  0  0  0  0  0  0  0  0  0  0  0
    5.3230   -4.7580   19.9440 O   0  0  0  0  0  0  0  0  0  0  0  0
    6.8560   -4.3870   21.6030 N   0  0  0  0  0  0  0  0  0  0  0  0
    6.3400   -5.4590   22.3840 C   0  0  0  0  0  0  0  0  0  0  0  0
    5.5040   -4.8330   23.4490 C   0  0  0  0  0  0  0  0  0  0  0  0
    6.4820   -4.3060   24.4810 C   0  0  0  0  0  0  0  0  0  0  0  0
    5.7530   -3.7010   25.6470 C   0  0  0  0  0  0  0  0  0  0  0  0
    4.6280   -3.2140   25.4640 O   0  0  0  0  0  0  0  0  0  0  0  0
    6.3460   -3.6740   26.9560 N   0  0  0  0  0  0  0  0  0  0  0  0
    6.0540   -2.8060   28.0290 C   0  0  0  0  0  0  0  0  0  0  0  0
    4.9530   -3.3690   28.2950 C   0  0  0  0  0  0  0  0  0  0  0  0
    4.6980   -2.6960   29.2380 C   0  0  0  0  0  0  0  0  0  0  0  0
    6.0510   -1.9610   28.9680 C   0  0  0  0  0  0  0  0  0  0  0  0
    5.5500   -1.4990   29.8860 C   0  0  0  0  0  0  0  0  0  0  0  0
    4.8470   -2.6130   29.1460 C   0  0  0  0  0  0  0  0  0  0  0  0
    4.5710   -3.6990   28.0840 C   0  0  0  0  0  0  0  0  0  0  0  0
    3.7960   -2.6400   27.6660 O   0  0  0  0  0  0  0  0  0  0  0  0
    5.4930   -4.4310   28.9210 N   0  0  0  0  0  0  0  0  0  0  0  0
    4.7900   -5.6520   29.2440 C   0  0  0  0  0  0  0  0  0  0  0  0
    5.2060   -6.7430   28.3340 C   0  0  0  0  0  0  0  0  0  0  0  0
    6.2920   -6.1070   27.5460 C   0  0  0  0  0  0  0  0  0  0  0  0
    6.5190   -4.6940   28.0200 C   0  0  1  0  0  0  0  0  0  0  0  0
    7.4810   -3.3390   23.8370 C   0  0  0  0  0  0  0  0  0  0  0  0
    7.4460   -3.2610   22.3150 C   0  0  0  0  0  0  0  0  0  0  0  0
  1  2  1  0
  2  3  2  0
  2  4  1  0
  4  5  1  0
  5  6  1  0
  6  7  1  0
  7  8  1  0
  8  9  2  0
  8 10  1  0
 10 11  1  0
 11 12  2  0
 12 13  1  0
 13 14  2  0
 14 15  1  0
 11 16  1  0
 15 16  2  0
 16 17  1  0
 17 18  2  0
 17 19  1  0
 19 20  1  0
 20 21  1  0
 21 22  1  0
 10 23  1  0
 19 23  1  0
 23 22  1  6
  7 24  1  0
  4 25  1  0
 24 25  1  0
M  END
