piperidine-amides-8057-covalent
     RDKit          3D

 26 28  0  0  0  0  0  0  0  0999 V2000
    7.0340   -3.2830   19.2930 C   0  0  0  0  0  0  0  0  0  0  0  0
    6.3040   -4.0960   20.2740 C   0  0  0  0  0  0  0  0  0  0  0  0
    5.2590   -4.6490   19.9040 O   0  0  0  0  0  0  0  0  0  0  0  0
    6.7850   -4.2940   21.5900 N   0  0  0  0  0  0  0  0  0  0  0  0
    7.5690   -3.2550   22.2140 C   0  0  0  0  0  0  0  0  0  0  0  0
    7.3540   -3.2580   23.6980 C   0  0  0  0  0  0  0  0  0  0  0  0
    6.1190   -4.0910   23.9550 C   0  0  0  0  0  0  0  0  0  0  0  0
    5.5830   -3.9380   25.3440 C   0  0  0  0  0  0  0  0  0  0  0  0
    4.3890   -4.1820   25.4840 O   0  0  0  0  0  0  0  0  0  0  0  0
    6.4220   -3.5070   26.3570 N   0  0  0  0  0  0  0  0  0  0  0  0
    6.5070   -2.1170   26.4520 C   0  0  1  0  0  0  0  0  0  0  0  0
    5.2620   -1.5460   26.2480 C   0  0  0  0  0  0  0  0  0  0  0  0
    5.0060   -0.6100   27.2180 C   0  0  0  0  0  0  0  0  0  0  0  0
    6.0750    0.2080   27.6050 C   0  0  0  0  0  0  0  0  0  0  0  0
    6.7270   -0.5530   28.7170 C   0  0  0  0  0  0  0  0  0  0  0  0
    6.4140    0.8480   29.2050 C   0  0  0  0  0  0  0  0  0  0  0  0
    5.8170    1.6190   28.1040 C   0  0  0  0  0  0  0  0  0  0  0  0
    5.7110    0.7870   26.8510 C   0  0  0  0  0  0  0  0  0  0  0  0
    5.2310    1.2970   25.7910 O   0  0  0  0  0  0  0  0  0  0  0  0
    4.3210    0.8390   24.8570 C   0  0  0  0  0  0  0  0  0  0  0  0
    5.0490    0.5090   23.7340 C   0  0  0  0  0  0  0  0  0  0  0  0
    3.3510    1.7610   24.5570 C   0  0  0  0  0  0  0  0  0  0  0  0
    6.1280   -0.5530   26.7890 C   0  0  0  0  0  0  0  0  0  0  0  0
    6.7570   -1.5430   27.7850 C   0  0  0  0  0  0  0  0  0  0  0  0
    6.4540   -5.5330   23.6540 C   0  0  0  0  0  0  0  0  0  0  0  0
    6.6140   -5.6240   22.1370 C   0  0  0  0  0  0  0  0  0  0  0  0
  1  2  1  0
  2  3  2  0
  2  4  1  0
  4  5  1  0
  5  6  1  0
  6  7  1  0
  7  8  1  0
  8  9  2  0
  8 10  1  0
 11 10  1  1
 11 12  1  0
 12 13  1  0
 13 14  1  0
 14 15  1  0
 15 16  2  0
 16 17  1  0
 17 18  2  0
 18 19  1  0
 19 20  1  0
 20 21  1  0
 20 22  1  0
 18 23  1  0
 11 24  1  0
 15 24  1  0
 23 24  2  0
  7 25  1  0
  4 26  1  0
 25 26  1  0
M  END
