piperidine-amides-29036-covalent
     RDKit          3D

 22 24  0  0  0  0  0  0  0  0999 V2000
    7.0620   -3.2930   19.2750 C   0  0  0  0  0  0  0  0  0  0  0  0
    6.3540   -4.0700   20.2940 C   0  0  0  0  0  0  0  0  0  0  0  0
    5.3450   -4.7060   19.9420 O   0  0  0  0  0  0  0  0  0  0  0  0
    6.8360   -4.1220   21.6290 N   0  0  0  0  0  0  0  0  0  0  0  0
    6.6370   -5.3250   22.3990 C   0  0  0  0  0  0  0  0  0  0  0  0
    6.0230   -4.9700   23.7230 C   0  0  0  0  0  0  0  0  0  0  0  0
    6.1360   -3.4690   23.8500 C   0  0  0  0  0  0  0  0  0  0  0  0
    5.8270   -3.0360   25.2510 C   0  0  0  0  0  0  0  0  0  0  0  0
    5.1460   -3.8120   25.9160 O   0  0  0  0  0  0  0  0  0  0  0  0
    6.2930   -1.7930   25.6880 N   0  0  0  0  0  0  0  0  0  0  0  0
    5.6150   -0.6350   25.3690 C   0  0  0  0  0  0  0  0  0  0  0  0
    5.5200   -0.3750   26.7150 C   0  0  0  0  0  0  0  0  0  0  0  0
    5.9630    0.8400   27.1890 C   0  0  0  0  0  0  0  0  0  0  0  0
    6.0730    1.9470   26.3160 C   0  0  0  0  0  0  0  0  0  0  0  0
    6.5610    3.2540   26.8610 C   0  0  0  0  0  0  0  0  0  0  0  0
    6.9140    3.3320   28.3340 C   0  0  0  0  0  0  0  0  0  0  0  0
    6.8330    2.3040   29.2430 N   0  0  0  0  0  0  0  0  0  0  0  0
    6.3610    1.0790   28.6650 C   0  0  0  0  0  0  0  0  0  0  0  0
    6.2220   -0.3950   29.8650 Br  0  0  0  0  0  0  0  0  0  0  0  0
    6.2690   -1.5210   27.1410 C   0  0  0  0  0  0  0  0  0  0  0  0
    7.4300   -2.8890   23.4710 C   0  0  0  0  0  0  0  0  0  0  0  0
    7.7520   -3.1300   22.1580 C   0  0  0  0  0  0  0  0  0  0  0  0
  1  2  1  0
  2  3  2  0
  2  4  1  0
  4  5  1  0
  5  6  1  0
  6  7  1  0
  7  8  1  0
  8  9  2  0
  8 10  1  0
 10 11  1  0
 11 12  1  0
 12 13  1  0
 13 14  2  0
 14 15  1  0
 15 16  2  0
 16 17  1  0
 13 18  1  0
 17 18  2  0
 18 19  1  0
 10 20  1  0
 12 20  1  0
  7 21  1  0
  4 22  1  0
 21 22  1  0
M  END
