piperidine-amides-33389-covalent
     RDKit          3D

 25 27  0  0  0  0  0  0  0  0999 V2000
    7.0450   -3.3580   19.3440 C   0  0  0  0  0  0  0  0  0  0  0  0
    6.3930   -4.2030   20.3550 C   0  0  0  0  0  0  0  0  0  0  0  0
    5.3630   -4.8170   19.9830 O   0  0  0  0  0  0  0  0  0  0  0  0
    6.9310   -4.3630   21.6650 N   0  0  0  0  0  0  0  0  0  0  0  0
    6.5140   -5.4600   22.4580 C   0  0  0  0  0  0  0  0  0  0  0  0
    6.2320   -5.1310   23.8630 C   0  0  0  0  0  0  0  0  0  0  0  0
    6.5050   -3.7400   24.3260 C   0  0  0  0  0  0  0  0  0  0  0  0
    5.3690   -3.2400   25.1930 C   0  0  0  0  0  0  0  0  0  0  0  0
    4.3990   -2.7090   24.6400 O   0  0  0  0  0  0  0  0  0  0  0  0
    5.3300   -3.3480   26.6050 N   0  0  0  0  0  0  0  0  0  0  0  0
    6.3900   -3.2530   27.4450 C   0  0  0  0  0  0  0  0  0  0  0  0
    6.6290   -4.4100   28.3490 C   0  0  0  0  0  0  0  0  0  0  0  0
    5.4760   -4.5730   29.3480 C   0  0  0  0  0  0  0  0  0  0  0  0
    5.8400   -5.5140   30.2790 O   0  0  0  0  0  0  0  0  0  0  0  0
    4.7450   -3.4920   29.8140 C   0  0  0  0  0  0  0  0  0  0  0  0
    5.8470   -2.4180   29.6880 C   0  0  0  0  0  0  0  0  0  0  0  0
    5.3990   -1.0300   30.1310 C   0  0  0  0  0  0  0  0  0  0  0  0
    3.9310   -0.9850   30.6150 C   0  0  0  0  0  0  0  0  0  0  0  0
    2.8940   -2.0660   30.7180 C   0  0  0  0  0  0  0  0  0  0  0  0
    1.1060   -1.8740   31.3380 Br  0  0  0  0  0  0  0  0  0  0  0  0
    3.4710   -3.3590   30.2550 C   0  0  0  0  0  0  0  0  0  0  0  0
    5.1220   -5.1100   27.9970 C   0  0  0  0  0  0  0  0  0  0  0  0
    4.3350   -4.1290   27.2060 C   0  0  0  0  0  0  0  0  0  0  0  0
    6.8000   -2.7580   23.2350 C   0  0  0  0  0  0  0  0  0  0  0  0
    7.6580   -3.3080   22.3080 C   0  0  0  0  0  0  0  0  0  0  0  0
  1  2  1  0
  2  3  2  0
  2  4  1  0
  4  5  1  0
  5  6  1  0
  6  7  1  0
  7  8  1  0
  8  9  2  0
  8 10  1  0
 10 11  1  0
 11 12  1  0
 12 13  1  0
 13 14  1  0
 13 15  1  0
 15 16  2  0
 16 17  1  0
 17 18  2  0
 18 19  1  0
 19 20  1  0
 15 21  1  0
 19 21  2  0
 13 22  1  0
 10 23  1  0
 22 23  1  0
  7 24  1  0
  4 25  1  0
 24 25  1  0
M  END
