piperidine-amides-17889-covalent
     RDKit          3D

 21 23  0  0  0  0  0  0  0  0999 V2000
    7.1550   -3.3750   19.4730 C   0  0  0  0  0  0  0  0  0  0  0  0
    6.4280   -4.2010   20.4010 C   0  0  0  0  0  0  0  0  0  0  0  0
    5.3940   -4.8150   19.9820 O   0  0  0  0  0  0  0  0  0  0  0  0
    6.8670   -4.3850   21.7250 N   0  0  0  0  0  0  0  0  0  0  0  0
    6.5450   -5.6510   22.3990 C   0  0  0  0  0  0  0  0  0  0  0  0
    5.4680   -5.0870   23.3850 C   0  0  0  0  0  0  0  0  0  0  0  0
    6.1500   -4.0000   24.1940 C   0  0  0  0  0  0  0  0  0  0  0  0
    5.1030   -3.3920   25.2320 C   0  0  0  0  0  0  0  0  0  0  0  0
    4.0790   -3.0910   24.6510 O   0  0  0  0  0  0  0  0  0  0  0  0
    5.5950   -3.3700   26.4010 N   0  0  0  0  0  0  0  0  0  0  0  0
    6.4230   -3.1400   27.4090 C   0  0  0  0  0  0  0  0  0  0  0  0
    6.6530   -3.8390   28.5300 C   0  0  0  0  0  0  0  0  0  0  0  0
    5.4870   -4.5540   28.5360 C   0  0  0  0  0  0  0  0  0  0  0  0
    4.6630   -4.0140   27.4140 C   0  0  1  0  0  0  0  0  0  0  0  0
    4.0650   -2.9220   28.3170 C   0  0  0  0  0  0  0  0  0  0  0  0
    2.8300   -3.2700   28.9830 N   0  0  0  0  0  0  0  0  0  0  0  0
    2.4910   -2.1980   29.6920 N   0  0  0  0  0  0  0  0  0  0  0  0
    3.4190   -1.2350   29.5140 N   0  0  0  0  0  0  0  0  0  0  0  0
    4.3760   -1.6620   28.6840 N   0  0  0  0  0  0  0  0  0  0  0  0
    6.9770   -2.9180   23.4930 C   0  0  0  0  0  0  0  0  0  0  0  0
    7.6990   -3.4260   22.4040 C   0  0  0  0  0  0  0  0  0  0  0  0
  1  2  1  0
  2  3  2  0
  2  4  1  0
  4  5  1  0
  5  6  1  0
  6  7  1  0
  7  8  1  0
  8  9  2  0
  8 10  1  0
 10 11  1  0
 11 12  1  0
 12 13  1  0
 10 14  1  0
 13 14  1  0
 14 15  1  1
 15 16  1  0
 16 17  2  0
 17 18  1  0
 15 19  2  0
 18 19  1  0
  7 20  1  0
  4 21  1  0
 20 21  1  0
M  END
