piperidine-amides-25242-covalent
     RDKit          3D

 25 28  0  0  0  0  0  0  0  0999 V2000
    7.0470   -3.3240   19.3470 C   0  0  0  0  0  0  0  0  0  0  0  0
    6.3860   -4.1890   20.3600 C   0  0  0  0  0  0  0  0  0  0  0  0
    5.4040   -4.8320   19.9820 O   0  0  0  0  0  0  0  0  0  0  0  0
    6.9000   -4.2820   21.6640 N   0  0  0  0  0  0  0  0  0  0  0  0
    6.7230   -5.4840   22.4470 C   0  0  0  0  0  0  0  0  0  0  0  0
    6.0240   -5.1340   23.7270 C   0  0  0  0  0  0  0  0  0  0  0  0
    6.1360   -3.6270   23.9250 C   0  0  0  0  0  0  0  0  0  0  0  0
    5.7470   -3.2670   25.3110 C   0  0  0  0  0  0  0  0  0  0  0  0
    4.5360   -3.2140   25.5650 O   0  0  0  0  0  0  0  0  0  0  0  0
    6.6650   -2.9900   26.3570 N   0  0  0  0  0  0  0  0  0  0  0  0
    7.2620   -4.2000   26.9190 C   0  0  0  0  0  0  0  0  0  0  0  0
    7.9210   -4.1060   28.1060 C   0  0  0  0  0  0  0  0  0  0  0  0
    6.6350   -4.5800   28.3420 C   0  0  0  0  0  0  0  0  0  0  0  0
    6.2460   -1.9720   27.2850 C   0  0  1  0  0  0  0  0  0  0  0  0
    7.1830   -1.4800   28.1480 C   0  0  0  0  0  0  0  0  0  0  0  0
    6.6830   -0.7420   29.3990 C   0  0  0  0  0  0  0  0  0  0  0  0
    6.3890    0.6540   28.8360 C   0  0  0  0  0  0  0  0  0  0  0  0
    5.8690    0.4820   27.4360 C   0  0  0  0  0  0  0  0  0  0  0  0
    5.4040    1.7490   26.8220 C   0  0  0  0  0  0  0  0  0  0  0  0
    4.8730    1.6930   25.4460 C   0  0  0  0  0  0  0  0  0  0  0  0
    4.8180    0.3710   24.7120 C   0  0  0  0  0  0  0  0  0  0  0  0
    5.2390   -0.8000   25.2590 N   0  0  0  0  0  0  0  0  0  0  0  0
    5.7630   -0.7410   26.6140 C   0  0  0  0  0  0  0  0  0  0  0  0
    7.5400   -3.1580   23.5870 C   0  0  0  0  0  0  0  0  0  0  0  0
    7.7380   -3.2110   22.2200 C   0  0  0  0  0  0  0  0  0  0  0  0
  1  2  1  0
  2  3  2  0
  2  4  1  0
  4  5  1  0
  5  6  1  0
  6  7  1  0
  7  8  1  0
  8  9  2  0
  8 10  1  0
 10 11  1  0
 11 12  1  0
 11 13  1  0
 12 13  1  0
 14 10  1  6
 14 15  1  0
 15 16  1  0
 16 17  1  0
 17 18  1  0
 18 19  2  0
 19 20  1  0
 20 21  2  0
 21 22  1  0
 14 23  1  0
 18 23  1  0
 22 23  2  0
  7 24  1  0
  4 25  1  0
 24 25  1  0
M  END
