piperidine-amides-784-covalent
     RDKit          3D

 25 26  0  0  0  0  0  0  0  0999 V2000
    7.0280   -3.4350   19.3610 C   0  0  0  0  0  0  0  0  0  0  0  0
    6.4050   -4.2410   20.3840 C   0  0  0  0  0  0  0  0  0  0  0  0
    5.4340   -4.9780   20.0180 O   0  0  0  0  0  0  0  0  0  0  0  0
    6.8520   -4.2750   21.7270 N   0  0  0  0  0  0  0  0  0  0  0  0
    6.6980   -5.5310   22.4760 C   0  0  0  0  0  0  0  0  0  0  0  0
    5.7410   -5.0100   23.6120 C   0  0  0  0  0  0  0  0  0  0  0  0
    6.4120   -3.8270   24.3050 C   0  0  0  0  0  0  0  0  0  0  0  0
    5.3090   -2.7990   24.8630 C   0  0  0  0  0  0  0  0  0  0  0  0
    4.2250   -3.0860   24.3410 O   0  0  0  0  0  0  0  0  0  0  0  0
    5.7910   -1.9480   25.7580 N   0  0  0  0  0  0  0  0  0  0  0  0
    6.1420   -1.2700   26.9130 C   0  0  0  0  0  0  0  0  0  0  0  0
    6.1900   -0.1500   27.5980 C   0  0  0  0  0  0  0  0  0  0  0  0
    5.6990   -0.3730   26.2750 N   0  0  0  0  0  0  0  0  0  0  0  0
    5.9140   -1.7420   26.0570 N   0  0  0  0  0  0  0  0  0  0  0  0
    5.4630   -1.9220   24.7660 C   0  0  0  0  0  0  0  0  0  0  0  0
    5.3380   -0.6520   23.9230 C   0  0  2  0  0  0  0  0  0  0  0  0
    4.1900    0.0440   24.3210 O   0  0  0  0  0  0  0  0  0  0  0  0
    5.1420   -1.4180   22.5950 C   0  0  0  0  0  0  0  0  0  0  0  0
    5.3910   -0.6970   21.4630 N   0  0  0  0  0  0  0  0  0  0  0  0
    5.4680   -1.3040   20.2620 C   0  0  0  0  0  0  0  0  0  0  0  0
    5.0100    0.6050   21.4280 O   0  0  0  0  0  0  0  0  0  0  0  0
    4.3420    1.0130   20.2870 C   0  0  0  0  0  0  0  0  0  0  0  0
    6.5510   -2.4290   27.3160 C   0  0  0  0  0  0  0  0  0  0  0  0
    7.7000   -3.3600   23.6650 C   0  0  0  0  0  0  0  0  0  0  0  0
    7.6610   -3.2330   22.2910 C   0  0  0  0  0  0  0  0  0  0  0  0
  1  2  1  0
  2  3  2  0
  2  4  1  0
  4  5  1  0
  5  6  1  0
  6  7  1  0
  7  8  1  0
  8  9  2  0
  8 10  1  0
 10 11  1  0
 11 12  1  0
 12 13  2  0
 13 14  1  0
 14 15  1  0
 15 16  1  0
 16 17  1  1
 16 18  1  0
 18 19  1  0
 19 20  1  0
 19 21  1  0
 21 22  1  0
 11 23  2  0
 14 23  1  0
  7 24  1  0
  4 25  1  0
 24 25  1  0
M  END
