piperidine-amides-33716-covalent
     RDKit          3D

 24 26  0  0  0  0  0  0  0  0999 V2000
    7.0640   -3.3760   19.4020 C   0  0  0  0  0  0  0  0  0  0  0  0
    6.4390   -4.2740   20.3880 C   0  0  0  0  0  0  0  0  0  0  0  0
    5.4120   -4.8860   20.0000 O   0  0  0  0  0  0  0  0  0  0  0  0
    6.9980   -4.4800   21.6870 N   0  0  0  0  0  0  0  0  0  0  0  0
    6.4860   -5.5250   22.4860 C   0  0  0  0  0  0  0  0  0  0  0  0
    5.9190   -5.0970   23.7750 C   0  0  0  0  0  0  0  0  0  0  0  0
    6.3080   -3.7690   24.3350 C   0  0  0  0  0  0  0  0  0  0  0  0
    5.2450   -3.2690   25.3010 C   0  0  0  0  0  0  0  0  0  0  0  0
    4.1830   -2.8610   24.8170 O   0  0  0  0  0  0  0  0  0  0  0  0
    5.3780   -3.2450   26.7200 N   0  0  0  0  0  0  0  0  0  0  0  0
    6.5470   -3.3790   27.3850 C   0  0  0  0  0  0  0  0  0  0  0  0
    6.6430   -4.5520   28.2330 C   0  0  0  0  0  0  0  0  0  0  0  0
    5.5700   -4.9010   28.9300 N   0  0  0  0  0  0  0  0  0  0  0  0
    5.4580   -6.1490   29.6520 C   0  0  0  0  0  0  0  0  0  0  0  0
    4.1350   -6.4460   29.9420 C   0  0  0  0  0  0  0  0  0  0  0  0
    3.6510   -5.4190   30.8960 C   0  0  0  0  0  0  0  0  0  0  0  0
    2.2190   -5.9150   31.0850 C   0  0  0  0  0  0  0  0  0  0  0  0
    1.8880   -7.2260   30.2350 C   0  0  0  0  0  0  0  0  0  0  0  0
    0.1320   -7.9540   30.3820 Br  0  0  0  0  0  0  0  0  0  0  0  0
    3.2200   -7.7840   29.2970 S   0  0  0  0  0  0  0  0  0  0  0  0
    4.4710   -4.0300   28.8680 C   0  0  0  0  0  0  0  0  0  0  0  0
    4.2710   -3.1610   27.6080 C   0  0  0  0  0  0  0  0  0  0  0  0
    6.5850   -2.7170   23.2470 C   0  0  0  0  0  0  0  0  0  0  0  0
    7.6090   -3.3170   22.3450 C   0  0  0  0  0  0  0  0  0  0  0  0
  1  2  1  0
  2  3  2  0
  2  4  1  0
  4  5  1  0
  5  6  1  0
  6  7  1  0
  7  8  1  0
  8  9  2  0
  8 10  1  0
 10 11  1  0
 11 12  1  0
 12 13  1  0
 13 14  1  0
 14 15  1  0
 15 16  2  0
 16 17  1  0
 17 18  2  0
 18 19  1  0
 15 20  1  0
 18 20  1  0
 13 21  1  0
 10 22  1  0
 21 22  1  0
  7 23  1  0
  4 24  1  0
 23 24  1  0
M  END
