piperidine-amides-25181-covalent
     RDKit          3D

 22 23  0  0  0  0  0  0  0  0999 V2000
    7.0890   -3.2560   19.2040 C   0  0  0  0  0  0  0  0  0  0  0  0
    6.3070   -3.9940   20.2270 C   0  0  0  0  0  0  0  0  0  0  0  0
    5.2520   -4.5050   19.8620 O   0  0  0  0  0  0  0  0  0  0  0  0
    6.7860   -4.1350   21.5250 N   0  0  0  0  0  0  0  0  0  0  0  0
    7.5610   -3.1030   22.1790 C   0  0  0  0  0  0  0  0  0  0  0  0
    6.8660   -2.6360   23.4310 C   0  0  0  0  0  0  0  0  0  0  0  0
    6.4400   -3.8600   24.2410 C   0  0  0  0  0  0  0  0  0  0  0  0
    5.7300   -3.3970   25.4660 C   0  0  0  0  0  0  0  0  0  0  0  0
    4.4930   -3.3460   25.4560 O   0  0  0  0  0  0  0  0  0  0  0  0
    6.4250   -3.0040   26.6420 N   0  0  0  0  0  0  0  0  0  0  0  0
    6.3080   -3.7810   27.8710 C   0  0  0  0  0  0  0  0  0  0  0  0
    5.7990   -5.1860   27.6120 C   0  0  0  0  0  0  0  0  0  0  0  0
    5.6740   -5.9290   26.4840 C   0  0  0  0  0  0  0  0  0  0  0  0
    6.6680   -1.6240   26.8640 C   0  0  0  0  0  0  0  0  0  0  0  0
    6.6020   -1.2080   28.1760 C   0  0  0  0  0  0  0  0  0  0  0  0
    7.6410   -1.2280   29.2850 C   0  0  0  0  0  0  0  0  0  0  0  0
    6.8920   -0.6260   30.4400 C   0  0  0  0  0  0  0  0  0  0  0  0
    5.4920   -0.2770   30.0190 C   0  0  0  0  0  0  0  0  0  0  0  0
    4.4960    0.4350   31.2650 Cl  0  0  0  0  0  0  0  0  0  0  0  0
    5.0370   -0.6040   28.4200 S   0  0  0  0  0  0  0  0  0  0  0  0
    5.6800   -4.8690   23.4760 C   0  0  0  0  0  0  0  0  0  0  0  0
    6.4120   -5.3050   22.2580 C   0  0  0  0  0  0  0  0  0  0  0  0
  1  2  1  0
  2  3  2  0
  2  4  1  0
  4  5  1  0
  5  6  1  0
  6  7  1  0
  7  8  1  0
  8  9  2  0
  8 10  1  0
 10 11  1  0
 11 12  1  0
 12 13  2  3
 10 14  1  0
 14 15  1  0
 15 16  2  0
 16 17  1  0
 17 18  2  0
 18 19  1  0
 15 20  1  0
 18 20  1  0
  7 21  1  0
  4 22  1  0
 21 22  1  0
M  END
