piperidine-amides-19514-covalent
     RDKit          3D

 22 25  0  0  0  0  0  0  0  0999 V2000
    7.0920   -3.3380   19.4330 C   0  0  0  0  0  0  0  0  0  0  0  0
    6.3880   -4.1660   20.3920 C   0  0  0  0  0  0  0  0  0  0  0  0
    5.4130   -4.8760   19.9840 O   0  0  0  0  0  0  0  0  0  0  0  0
    6.7670   -4.2340   21.7480 N   0  0  0  0  0  0  0  0  0  0  0  0
    6.7020   -5.5760   22.3840 C   0  0  0  0  0  0  0  0  0  0  0  0
    6.1970   -5.2730   23.8610 C   0  0  0  0  0  0  0  0  0  0  0  0
    6.3410   -3.7870   24.0720 C   0  0  0  0  0  0  0  0  0  0  0  0
    5.8600   -3.2030   25.4840 C   0  0  0  0  0  0  0  0  0  0  0  0
    5.5640   -2.0280   25.3560 O   0  0  0  0  0  0  0  0  0  0  0  0
    5.8690   -4.0960   26.3930 N   0  0  0  0  0  0  0  0  0  0  0  0
    5.9580   -5.3370   26.9370 C   0  0  1  0  0  0  0  0  0  0  0  0
    6.5110   -5.8420   28.0460 C   0  0  0  0  0  0  0  0  0  0  0  0
    6.6330   -4.7600   28.8730 C   0  0  0  0  0  0  0  0  0  0  0  0
    5.3530   -4.0890   29.0090 C   0  0  0  0  0  0  0  0  0  0  0  0
    5.3240   -3.4050   27.5980 C   0  0  2  0  0  0  0  0  0  0  0  0
    3.9170   -3.5160   27.5880 C   0  0  0  0  0  0  0  0  0  0  0  0
    3.4930   -4.6960   26.9710 C   0  0  0  0  0  0  0  0  0  0  0  0
    3.2490   -4.3120   28.3110 C   0  0  0  0  0  0  0  0  0  0  0  0
    2.0070   -4.9560   27.6020 C   0  0  0  0  0  0  0  0  0  0  0  0
    4.4870   -5.7770   27.0440 C   0  0  0  0  0  0  0  0  0  0  0  0
    7.6440   -3.1970   23.5850 C   0  0  0  0  0  0  0  0  0  0  0  0
    7.7100   -3.2510   22.2410 C   0  0  0  0  0  0  0  0  0  0  0  0
  1  2  1  0
  2  3  2  0
  2  4  1  0
  4  5  1  0
  5  6  1  0
  6  7  1  0
  7  8  1  0
  8  9  2  0
  8 10  1  0
 10 11  1  0
 11 12  1  1
 12 13  1  0
 13 14  1  0
 10 15  1  0
 15 14  1  1
 15 16  1  0
 17 16  1  0
 17 18  1  0
 17 19  1  0
 18 19  1  0
 11 20  1  0
 17 20  1  0
  7 21  1  0
  4 22  1  0
 21 22  1  0
M  END
