piperidine-amides-34398-covalent
     RDKit          3D

 31 33  0  0  0  0  0  0  0  0999 V2000
    7.1250   -3.2550   19.2650 C   0  0  0  0  0  0  0  0  0  0  0  0
    6.4150   -4.0240   20.2960 C   0  0  0  0  0  0  0  0  0  0  0  0
    5.4120   -4.7050   19.9640 O   0  0  0  0  0  0  0  0  0  0  0  0
    6.8700   -4.0470   21.6290 N   0  0  0  0  0  0  0  0  0  0  0  0
    6.7840   -5.2760   22.3710 C   0  0  0  0  0  0  0  0  0  0  0  0
    6.0970   -4.9670   23.7190 C   0  0  0  0  0  0  0  0  0  0  0  0
    6.0930   -3.4740   23.9100 C   0  0  0  0  0  0  0  0  0  0  0  0
    5.5650   -3.1030   25.2520 C   0  0  0  0  0  0  0  0  0  0  0  0
    4.4080   -2.6390   25.2820 O   0  0  0  0  0  0  0  0  0  0  0  0
    6.2960   -3.2440   26.4660 N   0  0  0  0  0  0  0  0  0  0  0  0
    6.5810   -2.0340   27.1900 C   0  0  0  0  0  0  0  0  0  0  0  0
    6.1940   -4.4900   27.2310 C   0  0  0  0  0  0  0  0  0  0  0  0
    4.9360   -4.6630   27.7070 C   0  0  0  0  0  0  0  0  0  0  0  0
    4.6170   -5.8570   28.3240 C   0  0  0  0  0  0  0  0  0  0  0  0
    3.2810   -6.2460   28.5090 C   0  0  0  0  0  0  0  0  0  0  0  0
    2.6480   -6.9340   27.4940 C   0  0  0  0  0  0  0  0  0  0  0  0
    3.2750   -6.9020   26.1220 C   0  0  0  0  0  0  0  0  0  0  0  0
    2.0350   -6.8470   25.4020 C   0  0  0  0  0  0  0  0  0  0  0  0
    2.7880   -6.8080   24.1610 C   0  0  0  0  0  0  0  0  0  0  0  0
    1.5430   -6.7440   23.3980 C   0  0  0  0  0  0  0  0  0  0  0  0
    1.2850   -7.7510   22.4370 C   0  0  0  0  0  0  0  0  0  0  0  0
    0.1600   -7.8020   21.6520 C   0  0  0  0  0  0  0  0  0  0  0  0
   -0.9530   -6.7950   21.7040 C   0  0  0  0  0  0  0  0  0  0  0  0
   -2.1020   -6.8260   20.9170 F   0  0  0  0  0  0  0  0  0  0  0  0
   -0.7130   -5.7150   22.7110 C   0  0  0  0  0  0  0  0  0  0  0  0
    0.5370   -5.6520   23.5890 C   0  0  0  0  0  0  0  0  0  0  0  0
    4.1460   -6.8420   24.2440 N   0  0  0  0  0  0  0  0  0  0  0  0
    5.0810   -6.8060   23.1630 C   0  0  0  0  0  0  0  0  0  0  0  0
    4.4860   -6.9110   25.6030 N   0  0  0  0  0  0  0  0  0  0  0  0
    7.4090   -2.8510   23.5680 C   0  0  0  0  0  0  0  0  0  0  0  0
    7.6500   -2.9920   22.2150 C   0  0  0  0  0  0  0  0  0  0  0  0
  1  2  1  0
  2  3  2  0
  2  4  1  0
  4  5  1  0
  5  6  1  0
  6  7  1  0
  7  8  1  0
  8  9  2  0
  8 10  1  0
 10 11  1  0
 10 12  1  0
 12 13  1  0
 13 14  1  0
 14 15  1  0
 15 16  1  0
 16 17  1  0
 17 18  1  0
 18 19  2  0
 19 20  1  0
 20 21  2  0
 21 22  1  0
 22 23  2  0
 23 24  1  0
 23 25  1  0
 20 26  1  0
 25 26  2  0
 19 27  1  0
 27 28  1  0
 17 29  2  0
 27 29  1  0
  7 30  1  0
  4 31  1  0
 30 31  1  0
M  END
