piperidine-amides-2772-covalent
     RDKit          3D

 24 25  0  0  0  0  0  0  0  0999 V2000
    7.1640   -3.3080   19.3010 C   0  0  0  0  0  0  0  0  0  0  0  0
    6.3690   -4.0680   20.2540 C   0  0  0  0  0  0  0  0  0  0  0  0
    5.3060   -4.5770   19.9010 O   0  0  0  0  0  0  0  0  0  0  0  0
    6.8620   -4.2690   21.5920 N   0  0  0  0  0  0  0  0  0  0  0  0
    6.3030   -5.3020   22.4080 C   0  0  0  0  0  0  0  0  0  0  0  0
    6.0330   -4.7390   23.7810 C   0  0  0  0  0  0  0  0  0  0  0  0
    5.8810   -3.2210   23.6660 C   0  0  0  0  0  0  0  0  0  0  0  0
    5.5920   -2.6250   25.0050 C   0  0  0  0  0  0  0  0  0  0  0  0
    4.9690   -3.2490   25.8890 O   0  0  0  0  0  0  0  0  0  0  0  0
    6.0120   -1.2790   25.2570 N   0  0  0  0  0  0  0  0  0  0  0  0
    7.2950   -1.0330   25.8760 C   0  0  0  0  0  0  0  0  0  0  0  0
    7.6800   -2.3710   26.2870 C   0  0  0  0  0  0  0  0  0  0  0  0
    8.2680   -3.2230   25.3820 C   0  0  0  0  0  0  0  0  0  0  0  0
    8.6040   -4.4980   25.7610 C   0  0  0  0  0  0  0  0  0  0  0  0
    8.3550   -4.9120   27.0300 C   0  0  0  0  0  0  0  0  0  0  0  0
    8.6850   -6.2030   27.4060 C   0  0  0  0  0  0  0  0  0  0  0  0
    9.5980   -6.7580   26.7380 O   0  0  0  0  0  0  0  0  0  0  0  0
    8.0010   -6.7920   28.4390 O   0  0  0  0  0  0  0  0  0  0  0  0
    6.6840   -6.5260   28.8300 C   0  0  0  0  0  0  0  0  0  0  0  0
    7.7860   -4.0450   27.9000 C   0  0  0  0  0  0  0  0  0  0  0  0
    7.4380   -2.7740   27.5690 C   0  0  0  0  0  0  0  0  0  0  0  0
    6.6290   -1.5900   28.8410 Br  0  0  0  0  0  0  0  0  0  0  0  0
    6.9300   -2.4780   22.9780 C   0  0  0  0  0  0  0  0  0  0  0  0
    7.7320   -3.3340   22.2510 C   0  0  0  0  0  0  0  0  0  0  0  0
  1  2  1  0
  2  3  2  0
  2  4  1  0
  4  5  1  0
  5  6  1  0
  6  7  1  0
  7  8  1  0
  8  9  2  0
  8 10  1  0
 10 11  1  0
 11 12  1  0
 12 13  2  0
 13 14  1  0
 14 15  2  0
 15 16  1  0
 16 17  2  0
 16 18  1  0
 18 19  1  0
 15 20  1  0
 12 21  1  0
 20 21  2  0
 21 22  1  0
  7 23  1  0
  4 24  1  0
 23 24  1  0
M  END
