piperidine-amides-13684-covalent
     RDKit          3D

 28 30  0  0  0  0  0  0  0  0999 V2000
    7.0720   -3.2880   19.3230 C   0  0  0  0  0  0  0  0  0  0  0  0
    6.3400   -4.1230   20.3210 C   0  0  0  0  0  0  0  0  0  0  0  0
    5.3180   -4.7230   19.9460 O   0  0  0  0  0  0  0  0  0  0  0  0
    6.8330   -4.2640   21.6480 N   0  0  0  0  0  0  0  0  0  0  0  0
    6.6090   -5.4980   22.3760 C   0  0  0  0  0  0  0  0  0  0  0  0
    6.2470   -5.1710   23.8410 C   0  0  0  0  0  0  0  0  0  0  0  0
    6.0300   -3.7000   23.9490 C   0  0  0  0  0  0  0  0  0  0  0  0
    5.6090   -3.2110   25.2950 C   0  0  0  0  0  0  0  0  0  0  0  0
    4.4320   -2.8410   25.3620 O   0  0  0  0  0  0  0  0  0  0  0  0
    6.4670   -3.1780   26.4030 N   0  0  0  0  0  0  0  0  0  0  0  0
    6.1630   -3.6100   27.7320 C   0  0  2  0  0  0  0  0  0  0  0  0
    5.2080   -4.5640   27.9580 C   0  0  0  0  0  0  0  0  0  0  0  0
    5.6150   -5.8670   28.3610 C   0  0  0  0  0  0  0  0  0  0  0  0
    4.7420   -6.9090   28.6250 C   0  0  0  0  0  0  0  0  0  0  0  0
    3.2800   -6.6980   28.4940 C   0  0  0  0  0  0  0  0  0  0  0  0
    2.1200   -7.9750   28.8250 Cl  0  0  0  0  0  0  0  0  0  0  0  0
    2.7810   -5.3370   28.0640 C   0  0  0  0  0  0  0  0  0  0  0  0
    3.8740   -4.3140   27.8150 C   0  0  0  0  0  0  0  0  0  0  0  0
    6.0010   -2.6000   28.6710 C   0  0  0  0  0  0  0  0  0  0  0  0
    4.8960   -2.7100   29.6780 C   0  0  0  0  0  0  0  0  0  0  0  0
    4.8850   -1.5050   30.6210 C   0  0  0  0  0  0  0  0  0  0  0  0
    5.7450   -0.4380   30.5990 C   0  0  0  0  0  0  0  0  0  0  0  0
    5.5110    0.4470   31.5190 O   0  0  0  0  0  0  0  0  0  0  0  0
    4.1980    0.6810   31.8280 C   0  0  0  0  0  0  0  0  0  0  0  0
    6.7430   -0.3480   29.6800 C   0  0  0  0  0  0  0  0  0  0  0  0
    6.8500   -1.4880   28.6890 C   0  0  0  0  0  0  0  0  0  0  0  0
    7.2560   -2.9140   23.5490 C   0  0  0  0  0  0  0  0  0  0  0  0
    7.5620   -3.1720   22.2240 C   0  0  0  0  0  0  0  0  0  0  0  0
  1  2  1  0
  2  3  2  0
  2  4  1  0
  4  5  1  0
  5  6  1  0
  6  7  1  0
  7  8  1  0
  8  9  2  0
  8 10  1  0
 11 10  1  6
 11 12  1  0
 12 13  2  0
 13 14  1  0
 14 15  2  0
 15 16  1  0
 15 17  1  0
 12 18  1  0
 17 18  2  0
 11 19  1  0
 19 20  2  0
 20 21  1  0
 21 22  2  0
 22 23  1  0
 23 24  1  0
 22 25  1  0
 19 26  1  0
 25 26  2  0
  7 27  1  0
  4 28  1  0
 27 28  1  0
M  END
