piperidine-amides-2500-covalent
     RDKit          3D

 26 28  0  0  0  0  0  0  0  0999 V2000
    7.1370   -3.2730   19.2190 C   0  0  0  0  0  0  0  0  0  0  0  0
    6.3380   -4.0040   20.2330 C   0  0  0  0  0  0  0  0  0  0  0  0
    5.2760   -4.4990   19.8680 O   0  0  0  0  0  0  0  0  0  0  0  0
    6.8360   -4.1430   21.5270 N   0  0  0  0  0  0  0  0  0  0  0  0
    7.7190   -3.1680   22.1140 C   0  0  0  0  0  0  0  0  0  0  0  0
    7.3580   -2.9810   23.5530 C   0  0  0  0  0  0  0  0  0  0  0  0
    5.9700   -3.5720   23.7870 C   0  0  0  0  0  0  0  0  0  0  0  0
    5.5670   -3.2500   25.1540 C   0  0  0  0  0  0  0  0  0  0  0  0
    4.8010   -2.3070   25.3830 O   0  0  0  0  0  0  0  0  0  0  0  0
    6.0540   -4.0390   26.1820 N   0  0  0  0  0  0  0  0  0  0  0  0
    6.0980   -3.5200   27.5080 C   0  0  0  0  0  0  0  0  0  0  0  0
    6.2410   -4.7300   28.3940 C   0  0  0  0  0  0  0  0  0  0  0  0
    5.5430   -4.8310   29.5500 C   0  0  0  0  0  0  0  0  0  0  0  0
    4.2140   -5.1000   29.5060 C   0  0  0  0  0  0  0  0  0  0  0  0
    3.4200   -6.2720   29.7370 N   0  0  0  0  0  0  0  0  0  0  0  0
    2.0360   -5.9760   29.5610 C   0  0  0  0  0  0  0  0  0  0  0  0
    0.9800   -7.0440   29.7530 C   0  0  0  0  0  0  0  0  0  0  0  0
    1.6640   -8.2970   29.2630 C   0  0  0  0  0  0  0  0  0  0  0  0
    0.8190   -9.5840   29.3350 C   0  0  0  0  0  0  0  0  0  0  0  0
   -0.4640   -9.5500   29.8200 N   0  0  0  0  0  0  0  0  0  0  0  0
   -1.0030   -8.3010   30.2560 C   0  0  0  0  0  0  0  0  0  0  0  0
   -0.3790   -6.9850   30.2700 C   0  0  0  0  0  0  0  0  0  0  0  0
    1.6770   -4.5690   29.1830 C   0  0  0  0  0  0  0  0  0  0  0  0
    3.2120   -3.7620   29.0970 S   0  0  0  0  0  0  0  0  0  0  0  0
    6.0160   -5.0760   23.6110 C   0  0  0  0  0  0  0  0  0  0  0  0
    6.6110   -5.3660   22.2640 C   0  0  0  0  0  0  0  0  0  0  0  0
  1  2  1  0
  2  3  2  0
  2  4  1  0
  4  5  1  0
  5  6  1  0
  6  7  1  0
  7  8  1  0
  8  9  2  0
  8 10  1  0
 10 11  1  0
 11 12  1  0
 12 13  1  0
 13 14  1  0
 14 15  2  0
 15 16  1  0
 16 17  1  0
 17 18  2  0
 18 19  1  0
 19 20  2  0
 20 21  1  0
 17 22  1  0
 21 22  2  0
 16 23  2  0
 14 24  1  0
 23 24  1  0
  7 25  1  0
  4 26  1  0
 25 26  1  0
M  END
