piperidine-amides-4630-covalent
     RDKit          3D

 24 25  0  0  0  0  0  0  0  0999 V2000
    7.0950   -3.2800   19.2320 C   0  0  0  0  0  0  0  0  0  0  0  0
    6.3560   -4.0830   20.2390 C   0  0  0  0  0  0  0  0  0  0  0  0
    5.2670   -4.5660   19.8760 O   0  0  0  0  0  0  0  0  0  0  0  0
    6.8750   -4.3360   21.5110 N   0  0  0  0  0  0  0  0  0  0  0  0
    7.6280   -3.3120   22.1770 C   0  0  0  0  0  0  0  0  0  0  0  0
    7.2120   -2.9840   23.5420 C   0  0  0  0  0  0  0  0  0  0  0  0
    6.3760   -3.9880   24.2300 C   0  0  0  0  0  0  0  0  0  0  0  0
    5.6780   -3.3580   25.3750 C   0  0  0  0  0  0  0  0  0  0  0  0
    4.4750   -3.0700   25.2510 O   0  0  0  0  0  0  0  0  0  0  0  0
    6.3640   -3.1030   26.5780 N   0  0  0  0  0  0  0  0  0  0  0  0
    6.4080   -1.7620   27.2170 C   0  0  0  0  0  0  0  0  0  0  0  0
    7.0570   -1.6700   28.5250 C   0  0  0  0  0  0  0  0  0  0  0  0
    7.1190   -0.4030   29.2080 C   0  0  0  0  0  0  0  0  0  0  0  0
    6.5500    0.6920   28.5770 C   0  0  0  0  0  0  0  0  0  0  0  0
    5.9260    0.6380   27.3220 C   0  0  0  0  0  0  0  0  0  0  0  0
    5.8480   -0.5570   26.6410 C   0  0  0  0  0  0  0  0  0  0  0  0
    4.9870   -0.3580   25.0380 S   0  0  0  0  0  0  0  0  0  0  0  0
    6.1450    0.6360   24.0130 C   0  0  0  0  0  0  0  0  0  0  0  0
    5.4780    1.8150   23.8040 C   0  0  2  0  0  0  0  0  0  0  0  0
    4.2530    1.8930   24.4780 C   0  0  0  0  0  0  0  0  0  0  0  0
    5.0920    1.9370   22.4860 C   0  0  0  0  0  0  0  0  0  0  0  0
    4.7910    2.0280   21.3790 N   0  0  0  0  0  0  0  0  0  0  0  0
    5.4580   -4.7420   23.3530 C   0  0  0  0  0  0  0  0  0  0  0  0
    6.3000   -5.3970   22.3030 C   0  0  0  0  0  0  0  0  0  0  0  0
  1  2  1  0
  2  3  2  0
  2  4  1  0
  4  5  1  0
  5  6  1  0
  6  7  1  0
  7  8  1  0
  8  9  2  0
  8 10  1  0
 10 11  1  0
 11 12  2  0
 12 13  1  0
 13 14  2  0
 14 15  1  0
 11 16  1  0
 15 16  2  0
 16 17  1  0
 17 18  1  0
 18 19  1  0
 19 20  1  1
 19 21  1  0
 21 22  3  0
  7 23  1  0
  4 24  1  0
 23 24  1  0
M  END
