piperidine-amides-31409-covalent
     RDKit          3D

 27 28  0  0  0  0  0  0  0  0999 V2000
    7.1330   -3.3860   19.4980 C   0  0  0  0  0  0  0  0  0  0  0  0
    6.4780   -4.2890   20.4180 C   0  0  0  0  0  0  0  0  0  0  0  0
    5.4400   -4.9090   20.0050 O   0  0  0  0  0  0  0  0  0  0  0  0
    6.9810   -4.5380   21.7200 N   0  0  0  0  0  0  0  0  0  0  0  0
    7.8700   -3.5300   22.3340 C   0  0  0  0  0  0  0  0  0  0  0  0
    6.8440   -2.8880   23.3250 C   0  0  0  0  0  0  0  0  0  0  0  0
    6.4190   -3.9820   24.2870 C   0  0  0  0  0  0  0  0  0  0  0  0
    5.5120   -3.2610   25.3900 C   0  0  0  0  0  0  0  0  0  0  0  0
    5.0520   -2.2500   24.8890 O   0  0  0  0  0  0  0  0  0  0  0  0
    5.4320   -3.8560   26.5240 N   0  0  0  0  0  0  0  0  0  0  0  0
    4.8780   -4.2430   27.6770 C   0  0  0  0  0  0  0  0  0  0  0  0
    5.3520   -4.4570   28.9180 C   0  0  0  0  0  0  0  0  0  0  0  0
    6.2710   -5.5780   28.7670 N   0  0  0  0  0  0  0  0  0  0  0  0
    6.0070   -6.8570   29.1490 C   0  0  0  0  0  0  0  0  0  0  0  0
    5.0680   -6.7360   30.2900 C   0  0  0  0  0  0  0  0  0  0  0  0
    5.7650   -6.7310   31.5210 O   0  0  0  0  0  0  0  0  0  0  0  0
    4.8260   -6.9290   32.5320 C   0  0  0  0  0  0  0  0  0  0  0  0
    5.2860   -8.0360   33.2460 C   0  0  0  0  0  0  0  0  0  0  0  0
    4.4110   -9.1320   33.2660 O   0  0  0  0  0  0  0  0  0  0  0  0
    3.0470   -9.0410   33.4730 C   0  0  0  0  0  0  0  0  0  0  0  0
    2.7290   -9.7360   34.7980 C   0  0  0  0  0  0  0  0  0  0  0  0
    1.8650   -9.0210   35.5640 O   0  0  0  0  0  0  0  0  0  0  0  0
    1.5070   -7.6800   35.4230 C   0  0  0  0  0  0  0  0  0  0  0  0
    6.9000   -5.4840   27.4680 C   0  0  0  0  0  0  0  0  0  0  0  0
    6.7800   -4.1990   26.9450 C   0  0  0  0  0  0  0  0  0  0  0  0
    5.7830   -5.1960   23.6040 C   0  0  0  0  0  0  0  0  0  0  0  0
    6.5370   -5.6410   22.5310 C   0  0  0  0  0  0  0  0  0  0  0  0
  1  2  1  0
  2  3  2  0
  2  4  1  0
  4  5  1  0
  5  6  1  0
  6  7  1  0
  7  8  1  0
  8  9  2  0
  8 10  1  0
 10 11  1  0
 11 12  1  0
 12 13  1  0
 13 14  1  0
 14 15  1  0
 15 16  1  0
 16 17  1  0
 17 18  1  0
 18 19  1  0
 19 20  1  0
 20 21  1  0
 21 22  1  0
 22 23  1  0
 13 24  1  0
 10 25  1  0
 24 25  1  0
  7 26  1  0
  4 27  1  0
 26 27  1  0
M  END
