piperidine-amides-5384-covalent
     RDKit          3D

 20 21  0  0  0  0  0  0  0  0999 V2000
    7.0920   -3.2760   19.2310 C   0  0  0  0  0  0  0  0  0  0  0  0
    6.3390   -4.0290   20.2400 C   0  0  0  0  0  0  0  0  0  0  0  0
    5.2840   -4.5870   19.8990 O   0  0  0  0  0  0  0  0  0  0  0  0
    6.8010   -4.1780   21.5620 N   0  0  0  0  0  0  0  0  0  0  0  0
    6.6960   -5.4350   22.2810 C   0  0  0  0  0  0  0  0  0  0  0  0
    6.0470   -5.1030   23.5980 C   0  0  0  0  0  0  0  0  0  0  0  0
    6.0410   -3.6300   23.8460 C   0  0  0  0  0  0  0  0  0  0  0  0
    5.5580   -3.2790   25.1990 C   0  0  0  0  0  0  0  0  0  0  0  0
    4.3960   -2.8020   25.3470 O   0  0  0  0  0  0  0  0  0  0  0  0
    6.3240   -3.4590   26.3700 N   0  0  0  0  0  0  0  0  0  0  0  0
    5.7280   -4.1480   27.5360 C   0  0  1  0  0  0  0  0  0  0  0  0
    5.8620   -5.6200   27.3870 C   0  0  0  0  0  0  0  0  0  0  0  0
    6.6370   -6.2280   28.1670 O   0  0  0  0  0  0  0  0  0  0  0  0
    6.4350   -3.7940   28.8480 C   0  0  0  0  0  0  0  0  0  0  0  0
    5.7710   -2.5020   29.2880 C   0  0  0  0  0  0  0  0  0  0  0  0
    6.7150   -1.4040   29.7320 C   0  0  0  0  0  0  0  0  0  0  0  0
    6.1990   -0.6240   28.6600 C   0  0  0  0  0  0  0  0  0  0  0  0
    5.3240   -1.5310   28.1270 C   0  0  0  0  0  0  0  0  0  0  0  0
    7.3980   -3.0350   23.5930 C   0  0  0  0  0  0  0  0  0  0  0  0
    7.6920   -3.1660   22.1190 C   0  0  0  0  0  0  0  0  0  0  0  0
  1  2  1  0
  2  3  2  0
  2  4  1  0
  4  5  1  0
  5  6  1  0
  6  7  1  0
  7  8  1  0
  8  9  2  0
  8 10  1  0
 10 11  1  0
 11 12  1  6
 12 13  1  0
 11 14  1  0
 14 15  1  0
 15 16  1  0
 16 17  1  0
 15 18  1  0
 17 18  1  0
  7 19  1  0
  4 20  1  0
 19 20  1  0
M  END
