piperidine-amides-5451-covalent
     RDKit          3D

 20 20  0  0  0  0  0  0  0  0999 V2000
    7.0570   -3.2670   19.2110 C   0  0  0  0  0  0  0  0  0  0  0  0
    6.2910   -3.9980   20.2290 C   0  0  0  0  0  0  0  0  0  0  0  0
    5.2640   -4.6060   19.8950 O   0  0  0  0  0  0  0  0  0  0  0  0
    6.7140   -4.0560   21.5630 N   0  0  0  0  0  0  0  0  0  0  0  0
    7.6270   -3.0640   22.0750 C   0  0  0  0  0  0  0  0  0  0  0  0
    7.2060   -2.7390   23.4830 C   0  0  0  0  0  0  0  0  0  0  0  0
    6.0420   -3.5460   23.9760 C   0  0  0  0  0  0  0  0  0  0  0  0
    5.8500   -3.3980   25.4390 C   0  0  0  0  0  0  0  0  0  0  0  0
    4.6780   -3.3490   25.9190 O   0  0  0  0  0  0  0  0  0  0  0  0
    6.9310   -3.2800   26.3530 N   0  0  0  0  0  0  0  0  0  0  0  0
    7.7420   -4.4600   26.7420 C   0  0  0  0  0  0  0  0  0  0  0  0
    8.7170   -4.7180   25.6540 C   0  0  0  0  0  0  0  0  0  0  0  0
   10.1420   -4.3640   25.8260 C   0  0  0  0  0  0  0  0  0  0  0  0
   10.8950   -3.0080   24.9730 S   0  0  0  0  0  0  0  0  0  0  0  0
   10.6960   -1.7750   25.7100 O   0  0  0  0  0  0  0  0  0  0  0  0
   12.3810   -3.2720   24.8770 O   0  0  0  0  0  0  0  0  0  0  0  0
   10.2300   -2.6020   23.3950 C   0  0  0  0  0  0  0  0  0  0  0  0
   11.3780   -2.1760   22.4920 C   0  0  0  0  0  0  0  0  0  0  0  0
    6.1780   -4.9970   23.6220 C   0  0  0  0  0  0  0  0  0  0  0  0
    6.3930   -5.2420   22.2900 C   0  0  0  0  0  0  0  0  0  0  0  0
  1  2  1  0
  2  3  2  0
  2  4  1  0
  4  5  1  0
  5  6  1  0
  6  7  1  0
  7  8  1  0
  8  9  2  0
  8 10  1  0
 10 11  1  0
 11 12  1  0
 12 13  1  0
 14 13  1  0
 14 15  2  0
 14 16  2  0
 14 17  1  0
 17 18  1  0
  7 19  1  0
  4 20  1  0
 19 20  1  0
M  END
