piperidine-amides-979-covalent
     RDKit          3D

 24 25  0  0  0  0  0  0  0  0999 V2000
    7.0290   -3.3410   19.3320 C   0  0  0  0  0  0  0  0  0  0  0  0
    6.3560   -4.1920   20.3550 C   0  0  0  0  0  0  0  0  0  0  0  0
    5.4090   -4.9100   19.9920 O   0  0  0  0  0  0  0  0  0  0  0  0
    6.8300   -4.1970   21.6880 N   0  0  0  0  0  0  0  0  0  0  0  0
    7.7200   -3.1530   22.1550 C   0  0  0  0  0  0  0  0  0  0  0  0
    7.5200   -3.0350   23.6560 C   0  0  0  0  0  0  0  0  0  0  0  0
    6.1720   -3.5970   23.9130 C   0  0  0  0  0  0  0  0  0  0  0  0
    5.6710   -3.2740   25.2630 C   0  0  0  0  0  0  0  0  0  0  0  0
    4.4590   -3.4240   25.4470 O   0  0  0  0  0  0  0  0  0  0  0  0
    6.5530   -2.8150   26.2450 N   0  0  0  0  0  0  0  0  0  0  0  0
    6.4550   -1.5980   26.9700 C   0  0  0  0  0  0  0  0  0  0  0  0
    5.9200   -0.4330   26.4720 C   0  0  0  0  0  0  0  0  0  0  0  0
    5.8350    0.7610   27.2190 C   0  0  0  0  0  0  0  0  0  0  0  0
    6.2870    0.8660   28.5220 C   0  0  0  0  0  0  0  0  0  0  0  0
    6.3320    1.8330   29.4290 O   0  0  0  0  0  0  0  0  0  0  0  0
    5.1350    2.2930   29.7070 C   0  0  0  0  0  0  0  0  0  0  0  0
    5.2560    3.7350   30.2150 C   0  0  0  0  0  0  0  0  0  0  0  0
    6.4430    4.1930   30.7510 O   0  0  0  0  0  0  0  0  0  0  0  0
    7.5000    3.3100   31.1430 C   0  0  0  0  0  0  0  0  0  0  0  0
    6.8350   -0.2150   29.1230 C   0  0  0  0  0  0  0  0  0  0  0  0
    7.4540   -0.0640   30.9220 Br  0  0  0  0  0  0  0  0  0  0  0  0
    6.9240   -1.4630   28.3430 C   0  0  0  0  0  0  0  0  0  0  0  0
    6.0500   -5.0650   23.6720 C   0  0  0  0  0  0  0  0  0  0  0  0
    6.7150   -5.3880   22.5050 C   0  0  0  0  0  0  0  0  0  0  0  0
  1  2  1  0
  2  3  2  0
  2  4  1  0
  4  5  1  0
  5  6  1  0
  6  7  1  0
  7  8  1  0
  8  9  2  0
  8 10  1  0
 10 11  1  0
 11 12  2  0
 12 13  1  0
 13 14  2  0
 14 15  1  0
 15 16  1  0
 16 17  1  0
 17 18  1  0
 18 19  1  0
 14 20  1  0
 20 21  1  0
 11 22  1  0
 20 22  2  0
  7 23  1  0
  4 24  1  0
 23 24  1  0
M  END
