piperidine-amides-23667-covalent
     RDKit          3D

 22 23  0  0  0  0  0  0  0  0999 V2000
    7.0250   -3.3860   19.3790 C   0  0  0  0  0  0  0  0  0  0  0  0
    6.3930   -4.2480   20.3950 C   0  0  0  0  0  0  0  0  0  0  0  0
    5.4120   -4.9240   20.0070 O   0  0  0  0  0  0  0  0  0  0  0  0
    6.9120   -4.3370   21.7240 N   0  0  0  0  0  0  0  0  0  0  0  0
    6.5680   -5.4680   22.5330 C   0  0  0  0  0  0  0  0  0  0  0  0
    6.0320   -5.0990   23.8490 C   0  0  0  0  0  0  0  0  0  0  0  0
    5.9570   -3.6400   24.0350 C   0  0  0  0  0  0  0  0  0  0  0  0
    5.2380   -3.0980   25.2630 C   0  0  0  0  0  0  0  0  0  0  0  0
    4.4870   -2.1320   25.0770 O   0  0  0  0  0  0  0  0  0  0  0  0
    5.3030   -3.5630   26.6050 N   0  0  0  0  0  0  0  0  0  0  0  0
    6.3910   -3.5280   27.4160 C   0  0  0  0  0  0  0  0  0  0  0  0
    6.5170   -4.6860   28.3010 C   0  0  0  0  0  0  0  0  0  0  0  0
    5.4370   -5.0270   29.0060 N   0  0  0  0  0  0  0  0  0  0  0  0
    4.9010   -6.4880   28.3830 S   0  0  0  0  0  0  0  0  0  0  0  0
    5.3590   -6.6550   26.9630 O   0  0  0  0  0  0  0  0  0  0  0  0
    3.4170   -6.6150   28.4380 O   0  0  0  0  0  0  0  0  0  0  0  0
    5.7000   -7.5850   29.5000 C   0  0  0  0  0  0  0  0  0  0  0  0
    5.2180   -7.2070   30.7280 C   0  0  0  0  0  0  0  0  0  0  0  0
    4.6390   -3.8710   28.9130 C   0  0  0  0  0  0  0  0  0  0  0  0
    4.1710   -3.6140   27.4990 C   0  0  0  0  0  0  0  0  0  0  0  0
    7.3370   -3.0370   23.7860 C   0  0  0  0  0  0  0  0  0  0  0  0
    7.6980   -3.2680   22.3300 C   0  0  0  0  0  0  0  0  0  0  0  0
  1  2  1  0
  2  3  2  0
  2  4  1  0
  4  5  1  0
  5  6  1  0
  6  7  1  0
  7  8  1  0
  8  9  2  0
  8 10  1  0
 10 11  1  0
 11 12  1  0
 12 13  1  0
 13 14  1  0
 14 15  2  0
 14 16  2  0
 14 17  1  0
 17 18  1  0
 13 19  1  0
 10 20  1  0
 19 20  1  0
  7 21  1  0
  4 22  1  0
 21 22  1  0
M  END
