piperidine-amides-32776-covalent
     RDKit          3D

 29 31  0  0  0  0  0  0  0  0999 V2000
    7.0360   -3.3570   19.4040 C   0  0  0  0  0  0  0  0  0  0  0  0
    6.3690   -4.2630   20.3810 C   0  0  0  0  0  0  0  0  0  0  0  0
    5.3760   -4.9020   19.9940 O   0  0  0  0  0  0  0  0  0  0  0  0
    6.8880   -4.4220   21.6930 N   0  0  0  0  0  0  0  0  0  0  0  0
    6.6710   -5.6440   22.4280 C   0  0  0  0  0  0  0  0  0  0  0  0
    5.8960   -5.2770   23.7030 C   0  0  0  0  0  0  0  0  0  0  0  0
    6.6490   -4.2100   24.4290 C   0  0  0  0  0  0  0  0  0  0  0  0
    5.9080   -3.7030   25.6290 C   0  0  0  0  0  0  0  0  0  0  0  0
    5.1170   -2.7740   25.4140 O   0  0  0  0  0  0  0  0  0  0  0  0
    6.0780   -4.2700   26.9270 N   0  0  0  0  0  0  0  0  0  0  0  0
    5.6500   -3.7390   28.1860 C   0  0  0  0  0  0  0  0  0  0  0  0
    5.0240   -4.4840   29.1890 C   0  0  0  0  0  0  0  0  0  0  0  0
    5.8350   -5.6550   29.5400 N   0  0  0  0  0  0  0  0  0  0  0  0
    5.5170   -6.6560   30.5490 C   0  0  0  0  0  0  0  0  0  0  0  0
    6.2010   -7.8660   30.3810 C   0  0  0  0  0  0  0  0  0  0  0  0
    6.7240   -8.2950   29.3090 O   0  0  0  0  0  0  0  0  0  0  0  0
    6.2910   -8.7600   31.5540 N   0  0  0  0  0  0  0  0  0  0  0  0
    7.1920   -9.9910   31.4920 C   0  0  0  0  0  0  0  0  0  0  0  0
    7.9790  -10.5570   30.2900 C   0  0  0  0  0  0  0  0  0  0  0  0
    8.8130  -11.8290   30.5260 C   0  0  0  0  0  0  0  0  0  0  0  0
    8.8300  -12.4310   31.7880 C   0  0  0  0  0  0  0  0  0  0  0  0
    8.0530  -11.8470   32.8860 C   0  0  0  0  0  0  0  0  0  0  0  0
    8.2950  -12.7430   34.0820 C   0  0  0  0  0  0  0  0  0  0  0  0
    7.2300  -10.6160   32.7340 C   0  0  0  0  0  0  0  0  0  0  0  0
    6.4330  -10.0440   33.9300 C   0  0  0  0  0  0  0  0  0  0  0  0
    6.6100   -6.1760   28.4270 C   0  0  0  0  0  0  0  0  0  0  0  0
    7.1140   -4.9650   27.6500 C   0  0  0  0  0  0  0  0  0  0  0  0
    6.8480   -2.9920   23.5320 C   0  0  0  0  0  0  0  0  0  0  0  0
    7.4800   -3.2880   22.3310 C   0  0  0  0  0  0  0  0  0  0  0  0
  1  2  1  0
  2  3  2  0
  2  4  1  0
  4  5  1  0
  5  6  1  0
  6  7  1  0
  7  8  1  0
  8  9  2  0
  8 10  1  0
 10 11  1  0
 11 12  1  0
 12 13  1  0
 13 14  1  0
 14 15  1  0
 15 16  2  0
 15 17  1  0
 17 18  1  0
 18 19  2  0
 19 20  1  0
 20 21  2  0
 21 22  1  0
 22 23  1  0
 18 24  1  0
 22 24  2  0
 24 25  1  0
 13 26  1  0
 10 27  1  0
 26 27  1  0
  7 28  1  0
  4 29  1  0
 28 29  1  0
M  END
