piperidine-amides-29639-covalent
     RDKit          3D

 25 27  0  0  0  0  0  0  0  0999 V2000
    7.1850   -3.3300   19.2320 C   0  0  0  0  0  0  0  0  0  0  0  0
    6.4330   -4.0750   20.2170 C   0  0  0  0  0  0  0  0  0  0  0  0
    5.3490   -4.5810   19.9220 O   0  0  0  0  0  0  0  0  0  0  0  0
    7.0180   -4.2770   21.5070 N   0  0  0  0  0  0  0  0  0  0  0  0
    6.5020   -5.3320   22.3040 C   0  0  0  0  0  0  0  0  0  0  0  0
    5.4880   -4.6890   23.1810 C   0  0  0  0  0  0  0  0  0  0  0  0
    6.1880   -3.5690   23.9340 C   0  0  0  0  0  0  0  0  0  0  0  0
    6.0130   -3.9670   25.3310 C   0  0  0  0  0  0  0  0  0  0  0  0
    6.1800   -5.1390   25.6170 O   0  0  0  0  0  0  0  0  0  0  0  0
    5.5120   -3.1180   26.3260 N   0  0  0  0  0  0  0  0  0  0  0  0
    4.2920   -3.6760   26.6410 C   0  0  0  0  0  0  0  0  0  0  0  0
    5.0030   -4.0370   27.8680 C   0  0  0  0  0  0  0  0  0  0  0  0
    5.5720   -5.3200   27.7780 C   0  0  0  0  0  0  0  0  0  0  0  0
    6.3330   -5.6830   28.8580 C   0  0  0  0  0  0  0  0  0  0  0  0
    5.1360   -5.8390   30.1160 S   0  0  0  0  0  0  0  0  0  0  0  0
    5.7290   -6.2960   31.4190 O   0  0  0  0  0  0  0  0  0  0  0  0
    4.0190   -6.7210   29.6820 O   0  0  0  0  0  0  0  0  0  0  0  0
    4.5790   -4.1110   30.1060 C   0  0  0  0  0  0  0  0  0  0  0  0
    3.9910   -3.8010   28.8330 C   0  0  0  0  0  0  0  0  0  0  0  0
    6.0440   -3.0770   27.6840 C   0  0  2  0  0  0  0  0  0  0  0  0
    6.0820   -1.8460   28.3240 C   0  0  0  0  0  0  0  0  0  0  0  0
    7.0590   -1.4810   29.2490 C   0  0  0  0  0  0  0  0  0  0  0  0
    5.6790   -1.5810   29.7020 C   0  0  0  0  0  0  0  0  0  0  0  0
    7.6430   -3.3880   23.5400 C   0  0  0  0  0  0  0  0  0  0  0  0
    7.7040   -3.1910   22.1590 C   0  0  0  0  0  0  0  0  0  0  0  0
  1  2  1  0
  2  3  2  0
  2  4  1  0
  4  5  1  0
  5  6  1  0
  6  7  1  0
  7  8  1  0
  8  9  2  0
  8 10  1  0
 10 11  1  0
 12 11  1  0
 12 13  1  0
 13 14  1  0
 15 14  1  0
 15 16  2  0
 15 17  2  0
 15 18  1  0
 12 19  1  0
 18 19  1  0
 10 20  1  0
 12 20  1  0
 20 21  1  1
 21 22  1  0
 21 23  1  0
  7 24  1  0
  4 25  1  0
 24 25  1  0
M  END
