piperidine-amides-10372-covalent
     RDKit          3D

 25 26  0  0  0  0  0  0  0  0999 V2000
    7.0780   -3.2930   19.2990 C   0  0  0  0  0  0  0  0  0  0  0  0
    6.3820   -4.1030   20.3100 C   0  0  0  0  0  0  0  0  0  0  0  0
    5.3200   -4.6580   19.9280 O   0  0  0  0  0  0  0  0  0  0  0  0
    6.9000   -4.2850   21.6060 N   0  0  0  0  0  0  0  0  0  0  0  0
    6.6680   -5.5030   22.3530 C   0  0  0  0  0  0  0  0  0  0  0  0
    6.1960   -5.1550   23.7440 C   0  0  0  0  0  0  0  0  0  0  0  0
    6.0330   -3.6710   23.9250 C   0  0  0  0  0  0  0  0  0  0  0  0
    5.5260   -3.3520   25.2850 C   0  0  0  0  0  0  0  0  0  0  0  0
    4.3300   -3.0220   25.3660 O   0  0  0  0  0  0  0  0  0  0  0  0
    6.2810   -3.4000   26.4790 N   0  0  0  0  0  0  0  0  0  0  0  0
    5.8760   -4.2100   27.6150 C   0  0  0  0  0  0  0  0  0  0  0  0
    5.9340   -5.7020   27.2810 C   0  0  0  0  0  0  0  0  0  0  0  0
    6.6860   -3.9450   28.8120 C   0  0  0  0  0  0  0  0  0  0  0  0
    4.4570   -3.8580   28.0350 C   0  0  0  0  0  0  0  0  0  0  0  0
    3.5320   -4.6690   28.6590 N   0  0  0  0  0  0  0  0  0  0  0  0
    2.2920   -4.3430   29.0270 C   0  0  0  0  0  0  0  0  0  0  0  0
    1.8610   -3.0810   28.7760 C   0  0  0  0  0  0  0  0  0  0  0  0
    2.6640   -2.1810   28.1700 C   0  0  0  0  0  0  0  0  0  0  0  0
    2.3310   -0.7440   27.8230 C   0  0  0  0  0  0  0  0  0  0  0  0
    3.1190   -0.1240   26.9120 F   0  0  0  0  0  0  0  0  0  0  0  0
    1.0310   -0.7710   27.3820 F   0  0  0  0  0  0  0  0  0  0  0  0
    2.3530    0.0070   29.0040 F   0  0  0  0  0  0  0  0  0  0  0  0
    3.8970   -2.6160   27.8400 N   0  0  0  0  0  0  0  0  0  0  0  0
    7.3040   -2.9630   23.6370 C   0  0  0  0  0  0  0  0  0  0  0  0
    7.6690   -3.1710   22.1840 C   0  0  0  0  0  0  0  0  0  0  0  0
  1  2  1  0
  2  3  2  0
  2  4  1  0
  4  5  1  0
  5  6  1  0
  6  7  1  0
  7  8  1  0
  8  9  2  0
  8 10  1  0
 11 10  1  0
 11 12  1  0
 11 13  1  0
 11 14  1  0
 14 15  2  0
 15 16  1  0
 16 17  2  0
 17 18  1  0
 18 19  1  0
 19 20  1  0
 19 21  1  0
 19 22  1  0
 14 23  1  0
 18 23  2  0
  7 24  1  0
  4 25  1  0
 24 25  1  0
M  END
