piperidine-amides-25327-covalent
     RDKit          3D

 24 24  0  0  0  0  0  0  0  0999 V2000
    7.1790   -3.8960   19.6050 C   0  0  0  0  0  0  0  0  0  0  0  0
    5.9200   -3.7840   20.2380 C   0  0  0  0  0  0  0  0  0  0  0  0
    4.9530   -3.8800   19.5010 O   0  0  0  0  0  0  0  0  0  0  0  0
    5.9500   -3.6890   21.5980 N   0  0  0  0  0  0  0  0  0  0  0  0
    7.0140   -2.9080   22.1570 C   0  0  0  0  0  0  0  0  0  0  0  0
    6.5900   -2.4570   23.5130 C   0  0  0  0  0  0  0  0  0  0  0  0
    6.0570   -3.6390   24.3300 C   0  0  0  0  0  0  0  0  0  0  0  0
    5.4980   -3.0560   25.5550 C   0  0  0  0  0  0  0  0  0  0  0  0
    4.3920   -2.5100   25.5470 O   0  0  0  0  0  0  0  0  0  0  0  0
    6.2510   -3.1440   26.7190 N   0  0  0  0  0  0  0  0  0  0  0  0
    6.9290   -1.9240   27.1160 C   0  0  0  0  0  0  0  0  0  0  0  0
    6.5490   -1.6240   28.5520 C   0  0  0  0  0  0  0  0  0  0  0  0
    7.4750   -1.2270   29.4730 C   0  0  0  0  0  0  0  0  0  0  0  0
    7.0310   -4.3040   26.7900 C   0  0  2  0  0  0  0  0  0  0  0  0
    7.4430   -4.7260   28.0210 C   0  0  0  0  0  0  0  0  0  0  0  0
    6.5040   -4.8320   29.0000 O   0  0  0  0  0  0  0  0  0  0  0  0
    5.9750   -6.0540   29.2540 C   0  0  0  0  0  0  0  0  0  0  0  0
    8.3780   -4.0190   26.2730 C   0  0  0  0  0  0  0  0  0  0  0  0
    9.5650   -4.3770   25.6670 O   0  0  0  0  0  0  0  0  0  0  0  0
    8.3000   -5.3350   26.0200 O   0  0  0  0  0  0  0  0  0  0  0  0
    9.1260   -6.1110   26.8190 C   0  0  0  0  0  0  0  0  0  0  0  0
    9.8930   -5.2090   27.7120 C   0  0  0  0  0  0  0  0  0  0  0  0
    5.0610   -4.5250   23.6300 C   0  0  0  0  0  0  0  0  0  0  0  0
    5.6580   -4.9070   22.3060 C   0  0  0  0  0  0  0  0  0  0  0  0
  1  2  1  0
  2  3  2  0
  2  4  1  0
  4  5  1  0
  5  6  1  0
  6  7  1  0
  7  8  1  0
  8  9  2  0
  8 10  1  0
 10 11  1  0
 11 12  1  0
 12 13  1  0
 10 14  1  0
 14 15  1  1
 15 16  1  0
 16 17  1  0
 14 18  1  0
 18 19  2  0
 18 20  1  0
 20 21  1  0
 21 22  1  0
  7 23  1  0
  4 24  1  0
 23 24  1  0
M  END
