piperidine-amides-860-covalent
     RDKit          3D

 25 27  0  0  0  0  0  0  0  0999 V2000
    7.1200   -3.3090   19.4050 C   0  0  0  0  0  0  0  0  0  0  0  0
    6.3980   -4.1150   20.3640 C   0  0  0  0  0  0  0  0  0  0  0  0
    5.3900   -4.7790   19.9630 O   0  0  0  0  0  0  0  0  0  0  0  0
    6.7950   -4.2190   21.7110 N   0  0  0  0  0  0  0  0  0  0  0  0
    6.6100   -5.5390   22.3620 C   0  0  0  0  0  0  0  0  0  0  0  0
    6.8700   -5.1430   23.8640 C   0  0  0  0  0  0  0  0  0  0  0  0
    6.1810   -3.8230   24.0180 C   0  0  0  0  0  0  0  0  0  0  0  0
    5.6180   -3.6150   25.4920 C   0  0  0  0  0  0  0  0  0  0  0  0
    4.8740   -4.5430   25.7470 O   0  0  0  0  0  0  0  0  0  0  0  0
    6.0220   -2.5580   26.0750 N   0  0  0  0  0  0  0  0  0  0  0  0
    6.2030   -1.4380   26.8360 C   0  0  0  0  0  0  0  0  0  0  0  0
    6.8140   -1.1590   28.4140 S   0  0  0  0  0  0  0  0  0  0  0  0
    6.7160    0.5380   28.7920 C   0  0  0  0  0  0  0  0  0  0  0  0
    6.1240    0.9820   27.5030 C   0  0  0  0  0  0  0  0  0  0  0  0
    5.8040    2.4020   27.2290 C   0  0  0  0  0  0  0  0  0  0  0  0
    5.7380    2.8750   28.6440 C   0  0  0  0  0  0  0  0  0  0  0  0
    4.6640    2.1020   28.3340 C   0  0  0  0  0  0  0  0  0  0  0  0
    5.8610   -0.0760   26.4800 C   0  0  0  0  0  0  0  0  0  0  0  0
    5.2460    0.2860   25.1230 C   0  0  0  0  0  0  0  0  0  0  0  0
    6.0230    0.8130   24.3040 O   0  0  0  0  0  0  0  0  0  0  0  0
    3.9220    0.0570   24.8150 O   0  0  0  0  0  0  0  0  0  0  0  0
    3.3230    0.3260   23.5770 C   0  0  0  0  0  0  0  0  0  0  0  0
    4.0390   -0.3510   22.6220 C   0  0  0  0  0  0  0  0  0  0  0  0
    6.8610   -2.6690   23.3200 C   0  0  0  0  0  0  0  0  0  0  0  0
    7.6260   -3.1960   22.3240 C   0  0  0  0  0  0  0  0  0  0  0  0
  1  2  1  0
  2  3  2  0
  2  4  1  0
  4  5  1  0
  5  6  1  0
  6  7  1  0
  7  8  1  0
  8  9  2  0
  8 10  1  0
 10 11  1  0
 11 12  1  0
 12 13  1  0
 13 14  2  0
 14 15  1  0
 15 16  1  0
 15 17  1  0
 16 17  1  0
 11 18  2  0
 14 18  1  0
 18 19  1  0
 19 20  2  0
 19 21  1  0
 21 22  1  0
 22 23  1  0
  7 24  1  0
  4 25  1  0
 24 25  1  0
M  END
