piperidine-amides-292-covalent
     RDKit          3D

 22 23  0  0  0  0  0  0  0  0999 V2000
    7.1350   -3.3050   19.1200 C   0  0  0  0  0  0  0  0  0  0  0  0
    6.3620   -3.9330   20.1670 C   0  0  0  0  0  0  0  0  0  0  0  0
    5.2610   -4.4770   19.8580 O   0  0  0  0  0  0  0  0  0  0  0  0
    6.8160   -4.0130   21.4940 N   0  0  0  0  0  0  0  0  0  0  0  0
    6.6290   -5.3150   22.1760 C   0  0  0  0  0  0  0  0  0  0  0  0
    5.9130   -4.8480   23.5020 C   0  0  0  0  0  0  0  0  0  0  0  0
    6.2210   -3.3710   23.6360 C   0  0  0  0  0  0  0  0  0  0  0  0
    5.5890   -2.7330   24.9260 C   0  0  0  0  0  0  0  0  0  0  0  0
    4.4580   -2.3100   24.7450 O   0  0  0  0  0  0  0  0  0  0  0  0
    6.4660   -2.8630   25.8090 N   0  0  0  0  0  0  0  0  0  0  0  0
    7.3310   -3.0870   26.7930 C   0  0  0  0  0  0  0  0  0  0  0  0
    7.3880   -3.8870   27.8500 C   0  0  2  0  0  0  0  0  0  0  0  0
    7.4390   -5.1840   27.3010 C   0  0  1  0  0  0  0  0  0  0  0  0
    8.7980   -5.7650   27.3860 C   0  0  0  0  0  0  0  0  0  0  0  0
    6.4950   -6.0390   27.6800 N   0  0  0  0  0  0  0  0  0  0  0  0
    6.8630   -6.4180   29.0180 C   0  0  0  0  0  0  0  0  0  0  0  0
    5.2190   -5.4440   27.6340 C   0  0  0  0  0  0  0  0  0  0  0  0
    5.1380   -4.3870   28.5540 C   0  0  0  0  0  0  0  0  0  0  0  0
    6.4300   -3.7550   28.7850 N   0  0  0  0  0  0  0  0  0  0  0  0
    6.2560   -2.3910   29.2070 C   0  0  0  0  0  0  0  0  0  0  0  0
    7.6410   -3.0560   23.3460 C   0  0  0  0  0  0  0  0  0  0  0  0
    7.7530   -3.0520   21.9980 C   0  0  0  0  0  0  0  0  0  0  0  0
  1  2  1  0
  2  3  2  0
  2  4  1  0
  4  5  1  0
  5  6  1  0
  6  7  1  0
  7  8  1  0
  8  9  2  0
  8 10  1  0
 10 11  1  0
 12 11  1  6
 12 13  1  0
 13 14  1  1
 13 15  1  0
 15 16  1  0
 15 17  1  0
 17 18  1  0
 12 19  1  0
 18 19  1  0
 19 20  1  0
  7 21  1  0
  4 22  1  0
 21 22  1  0
M  END
