piperidine-amides-14433-covalent
     RDKit          3D

 24 26  0  0  0  0  0  0  0  0999 V2000
    6.9610   -3.3530   19.3500 C   0  0  0  0  0  0  0  0  0  0  0  0
    6.3010   -4.1950   20.3580 C   0  0  0  0  0  0  0  0  0  0  0  0
    5.3870   -4.9440   19.9840 O   0  0  0  0  0  0  0  0  0  0  0  0
    6.7030   -4.1750   21.7170 N   0  0  0  0  0  0  0  0  0  0  0  0
    7.5870   -3.1440   22.1530 C   0  0  0  0  0  0  0  0  0  0  0  0
    7.5640   -3.1350   23.6370 C   0  0  0  0  0  0  0  0  0  0  0  0
    6.1760   -3.5590   24.0250 C   0  0  0  0  0  0  0  0  0  0  0  0
    5.8620   -3.3420   25.5080 C   0  0  0  0  0  0  0  0  0  0  0  0
    4.6920   -3.6100   25.8000 O   0  0  0  0  0  0  0  0  0  0  0  0
    6.8310   -2.8330   26.4640 N   0  0  0  0  0  0  0  0  0  0  0  0
    6.5940   -1.5300   27.0420 C   0  0  0  0  0  0  0  0  0  0  0  0
    7.0950   -0.9910   28.1220 C   0  0  0  0  0  0  0  0  0  0  0  0
    7.1560   -2.2160   27.3520 N   0  0  0  0  0  0  0  0  0  0  0  0
    6.3600   -2.3710   26.1300 N   0  0  0  0  0  0  0  0  0  0  0  0
    7.1210   -3.6050   26.3340 C   0  0  0  0  0  0  0  0  0  0  0  0
    6.6440   -4.5760   27.2430 C   0  0  0  0  0  0  0  0  0  0  0  0
    7.5050   -5.7800   27.4090 C   0  0  0  0  0  0  0  0  0  0  0  0
    8.8060   -5.9410   26.6390 C   0  0  0  0  0  0  0  0  0  0  0  0
    9.2540   -4.9200   25.7110 C   0  0  0  0  0  0  0  0  0  0  0  0
    8.3160   -3.7490   25.6230 C   0  0  0  0  0  0  0  0  0  0  0  0
    8.7180   -2.4170   24.5570 Cl  0  0  0  0  0  0  0  0  0  0  0  0
    5.7620   -1.0360   26.2240 C   0  0  0  0  0  0  0  0  0  0  0  0
    5.9810   -5.0400   23.7170 C   0  0  0  0  0  0  0  0  0  0  0  0
    6.6230   -5.3740   22.5210 C   0  0  0  0  0  0  0  0  0  0  0  0
  1  2  1  0
  2  3  2  0
  2  4  1  0
  4  5  1  0
  5  6  1  0
  6  7  1  0
  7  8  1  0
  8  9  2  0
  8 10  1  0
 10 11  1  0
 11 12  1  0
 12 13  2  0
 13 14  1  0
 14 15  1  0
 15 16  2  0
 16 17  1  0
 17 18  2  0
 18 19  1  0
 15 20  1  0
 19 20  2  0
 20 21  1  0
 11 22  2  0
 14 22  1  0
  7 23  1  0
  4 24  1  0
 23 24  1  0
M  END
