piperidine-amides-30970-covalent
     RDKit          3D

 27 28  0  0  0  0  0  0  0  0999 V2000
    7.1380   -3.2480   19.1870 C   0  0  0  0  0  0  0  0  0  0  0  0
    6.3760   -3.9640   20.2090 C   0  0  0  0  0  0  0  0  0  0  0  0
    5.3180   -4.5340   19.8860 O   0  0  0  0  0  0  0  0  0  0  0  0
    6.8260   -4.0760   21.5350 N   0  0  0  0  0  0  0  0  0  0  0  0
    7.6390   -3.0430   22.1670 C   0  0  0  0  0  0  0  0  0  0  0  0
    7.3630   -2.9920   23.6660 C   0  0  0  0  0  0  0  0  0  0  0  0
    5.9430   -3.3230   24.0600 C   0  0  0  0  0  0  0  0  0  0  0  0
    5.8380   -3.9450   25.3890 C   0  0  0  0  0  0  0  0  0  0  0  0
    6.0710   -5.1700   25.4380 O   0  0  0  0  0  0  0  0  0  0  0  0
    5.4230   -3.3650   26.6130 N   0  0  0  0  0  0  0  0  0  0  0  0
    6.3030   -2.5710   27.4500 C   0  0  0  0  0  0  0  0  0  0  0  0
    6.5460   -3.3020   28.7500 C   0  0  0  0  0  0  0  0  0  0  0  0
    5.7390   -4.4960   29.1780 C   0  0  0  0  0  0  0  0  0  0  0  0
    4.4770   -4.2870   29.9840 C   0  0  0  0  0  0  0  0  0  0  0  0
    4.2730   -5.4140   30.8640 N   0  0  0  0  0  0  0  0  0  0  0  0
    3.0010   -5.9860   30.4400 C   0  0  0  0  0  0  0  0  0  0  0  0
    5.1830   -6.5400   30.9990 C   0  0  0  0  0  0  0  0  0  0  0  0
    5.4020   -7.4460   30.0010 O   0  0  0  0  0  0  0  0  0  0  0  0
    5.8380   -6.7560   32.0560 O   0  0  0  0  0  0  0  0  0  0  0  0
    5.2600   -7.1830   33.2510 C   0  0  0  0  0  0  0  0  0  0  0  0
    6.1360   -7.2750   34.3390 C   0  0  0  0  0  0  0  0  0  0  0  0
    5.6240   -8.5720   33.8080 C   0  0  0  0  0  0  0  0  0  0  0  0
    4.3220   -8.4170   33.0500 C   0  0  0  0  0  0  0  0  0  0  0  0
    5.4560   -5.0320   27.8540 C   0  0  0  0  0  0  0  0  0  0  0  0
    4.6550   -4.2850   27.3620 C   0  0  0  0  0  0  0  0  0  0  0  0
    5.2920   -4.3320   23.2050 C   0  0  0  0  0  0  0  0  0  0  0  0
    6.1790   -4.9860   22.4000 C   0  0  0  0  0  0  0  0  0  0  0  0
  1  2  1  0
  2  3  2  0
  2  4  1  0
  4  5  1  0
  5  6  1  0
  6  7  1  0
  7  8  1  0
  8  9  2  0
  8 10  1  0
 10 11  1  0
 11 12  1  0
 12 13  1  0
 13 14  1  0
 14 15  1  0
 15 16  1  0
 15 17  1  0
 17 18  2  0
 17 19  1  0
 20 19  1  0
 20 21  1  0
 20 22  1  0
 20 23  1  0
 13 24  1  0
 10 25  1  0
 24 25  1  0
  7 26  1  0
  4 27  1  0
 26 27  1  0
M  END
