piperidine-amides-31424-covalent
     RDKit          3D

 28 30  0  0  0  0  0  0  0  0999 V2000
    7.2080   -4.0970   19.7810 C   0  0  0  0  0  0  0  0  0  0  0  0
    6.0110   -3.9710   20.4320 C   0  0  0  0  0  0  0  0  0  0  0  0
    4.9930   -4.1400   19.7090 O   0  0  0  0  0  0  0  0  0  0  0  0
    6.0270   -3.7930   21.7990 N   0  0  0  0  0  0  0  0  0  0  0  0
    7.3240   -3.1800   22.1900 C   0  0  0  0  0  0  0  0  0  0  0  0
    6.8680   -2.3650   23.4340 C   0  0  0  0  0  0  0  0  0  0  0  0
    6.6140   -3.4280   24.4540 C   0  0  0  0  0  0  0  0  0  0  0  0
    5.5840   -2.9030   25.5280 C   0  0  0  0  0  0  0  0  0  0  0  0
    4.6290   -2.3810   24.9810 O   0  0  0  0  0  0  0  0  0  0  0  0
    6.0270   -3.1560   26.6910 N   0  0  0  0  0  0  0  0  0  0  0  0
    6.3910   -3.8760   27.7940 C   0  0  0  0  0  0  0  0  0  0  0  0
    5.8760   -4.3310   28.9690 C   0  0  0  0  0  0  0  0  0  0  0  0
    6.4100   -5.4890   29.5420 O   0  0  0  0  0  0  0  0  0  0  0  0
    4.7600   -3.5440   29.5180 N   0  0  0  0  0  0  0  0  0  0  0  0
    3.6310   -4.2170   29.8160 C   0  0  0  0  0  0  0  0  0  0  0  0
    2.6590   -3.1050   29.8950 C   0  0  0  0  0  0  0  0  0  0  0  0
    3.1080   -2.8370   31.3420 C   0  0  0  0  0  0  0  0  0  0  0  0
    3.9320   -1.8020   30.8940 C   0  0  0  0  0  0  0  0  0  0  0  0
    4.8610   -2.1370   29.8930 C   0  0  0  0  0  0  0  0  0  0  0  0
    6.2450   -1.8860   27.3500 C   0  0  0  0  0  0  0  0  0  0  0  0
    5.6320   -0.5610   26.8070 C   0  0  0  0  0  0  0  0  0  0  0  0
    5.8490    0.6200   27.4750 C   0  0  0  0  0  0  0  0  0  0  0  0
    6.6060    0.6510   28.6240 C   0  0  0  0  0  0  0  0  0  0  0  0
    6.8050    1.8320   29.2720 C   0  0  0  0  0  0  0  0  0  0  0  0
    7.1690   -0.5140   29.1210 C   0  0  0  0  0  0  0  0  0  0  0  0
    6.9900   -1.7450   28.4960 C   0  0  0  0  0  0  0  0  0  0  0  0
    6.3920   -4.8190   23.9580 C   0  0  0  0  0  0  0  0  0  0  0  0
    5.6610   -4.8910   22.6530 C   0  0  0  0  0  0  0  0  0  0  0  0
  1  2  1  0
  2  3  2  0
  2  4  1  0
  4  5  1  0
  5  6  1  0
  6  7  1  0
  7  8  1  0
  8  9  2  0
  8 10  1  0
 10 11  1  0
 11 12  1  0
 12 13  2  0
 12 14  1  0
 14 15  1  0
 15 16  1  0
 16 17  1  0
 17 18  1  0
 14 19  1  0
 18 19  1  0
 10 20  1  0
 20 21  2  0
 21 22  1  0
 22 23  2  0
 23 24  1  0
 23 25  1  0
 20 26  1  0
 25 26  2  0
  7 27  1  0
  4 28  1  0
 27 28  1  0
M  END
