piperidine-amides-926-covalent
     RDKit          3D

 24 25  0  0  0  0  0  0  0  0999 V2000
    7.0800   -3.3290   19.2940 C   0  0  0  0  0  0  0  0  0  0  0  0
    6.3750   -4.1640   20.3040 C   0  0  0  0  0  0  0  0  0  0  0  0
    5.3550   -4.7880   19.9660 O   0  0  0  0  0  0  0  0  0  0  0  0
    6.9160   -4.2670   21.6050 N   0  0  0  0  0  0  0  0  0  0  0  0
    7.7750   -3.2460   22.1580 C   0  0  0  0  0  0  0  0  0  0  0  0
    7.0060   -2.6130   23.3040 C   0  0  0  0  0  0  0  0  0  0  0  0
    6.5260   -3.7330   24.1510 C   0  0  0  0  0  0  0  0  0  0  0  0
    5.6910   -3.2350   25.2630 C   0  0  0  0  0  0  0  0  0  0  0  0
    4.4680   -3.2460   25.0860 O   0  0  0  0  0  0  0  0  0  0  0  0
    6.2840   -2.7850   26.4380 N   0  0  0  0  0  0  0  0  0  0  0  0
    6.2700   -1.4500   26.9420 C   0  0  0  0  0  0  0  0  0  0  0  0
    5.9880   -0.2810   26.2440 C   0  0  0  0  0  0  0  0  0  0  0  0
    5.9940    1.0100   26.8280 C   0  0  0  0  0  0  0  0  0  0  0  0
    5.7080    2.1450   26.1020 C   0  0  0  0  0  0  0  0  0  0  0  0
    5.9860    3.4120   26.3670 O   0  0  0  0  0  0  0  0  0  0  0  0
    5.0310    1.9950   24.9220 O   0  0  0  0  0  0  0  0  0  0  0  0
    3.7010    1.4900   24.8470 C   0  0  0  0  0  0  0  0  0  0  0  0
    6.2990    1.0980   28.1510 C   0  0  0  0  0  0  0  0  0  0  0  0
    6.6110   -0.1400   28.9420 C   0  0  0  0  0  0  0  0  0  0  0  0
    7.0370   -0.0340   30.8010 Br  0  0  0  0  0  0  0  0  0  0  0  0
    6.5720   -1.3360   28.2800 C   0  0  0  0  0  0  0  0  0  0  0  0
    6.8540   -2.5680   28.9930 C   0  0  0  0  0  0  0  0  0  0  0  0
    5.7790   -4.8240   23.4370 C   0  0  0  0  0  0  0  0  0  0  0  0
    6.5790   -5.3650   22.4630 C   0  0  0  0  0  0  0  0  0  0  0  0
  1  2  1  0
  2  3  2  0
  2  4  1  0
  4  5  1  0
  5  6  1  0
  6  7  1  0
  7  8  1  0
  8  9  2  0
  8 10  1  0
 10 11  1  0
 11 12  2  0
 12 13  1  0
 13 14  1  0
 14 15  2  0
 14 16  1  0
 16 17  1  0
 13 18  2  0
 18 19  1  0
 19 20  1  0
 11 21  1  0
 19 21  2  0
 21 22  1  0
  7 23  1  0
  4 24  1  0
 23 24  1  0
M  END
