piperidine-amides-29643-covalent
     RDKit          3D

 27 29  0  0  0  0  0  0  0  0999 V2000
    7.0510   -3.4200   19.3920 C   0  0  0  0  0  0  0  0  0  0  0  0
    6.3820   -4.2700   20.3680 C   0  0  0  0  0  0  0  0  0  0  0  0
    5.3970   -4.9220   20.0080 O   0  0  0  0  0  0  0  0  0  0  0  0
    6.9030   -4.3850   21.7090 N   0  0  0  0  0  0  0  0  0  0  0  0
    7.7120   -3.3190   22.2750 C   0  0  0  0  0  0  0  0  0  0  0  0
    7.3220   -3.0360   23.7000 C   0  0  0  0  0  0  0  0  0  0  0  0
    6.0140   -3.7650   23.9060 C   0  0  0  0  0  0  0  0  0  0  0  0
    5.2870   -3.3110   25.1350 C   0  0  0  0  0  0  0  0  0  0  0  0
    4.4330   -2.4160   25.0560 O   0  0  0  0  0  0  0  0  0  0  0  0
    5.5000   -3.8480   26.4240 N   0  0  0  0  0  0  0  0  0  0  0  0
    6.4220   -3.1220   27.1790 C   0  0  0  0  0  0  0  0  0  0  0  0
    6.7300   -4.0570   28.3090 C   0  0  0  0  0  0  0  0  0  0  0  0
    5.7730   -4.1110   29.2220 C   0  0  0  0  0  0  0  0  0  0  0  0
    5.4740   -2.8620   29.7830 C   0  0  0  0  0  0  0  0  0  0  0  0
    4.3290   -2.5430   30.4680 C   0  0  0  0  0  0  0  0  0  0  0  0
    4.1990   -1.2000   30.9940 C   0  0  0  0  0  0  0  0  0  0  0  0
    5.0900   -0.1540   30.9020 C   0  0  0  0  0  0  0  0  0  0  0  0
    4.9430    1.1160   31.4200 C   0  0  0  0  0  0  0  0  0  0  0  0
    6.0230    1.8400   31.9420 C   0  0  0  0  0  0  0  0  0  0  0  0
    5.3310    2.3520   30.7250 C   0  0  0  0  0  0  0  0  0  0  0  0
    3.8850    1.3510   32.2460 C   0  0  0  0  0  0  0  0  0  0  0  0
    6.2510   -0.4670   30.2010 C   0  0  0  0  0  0  0  0  0  0  0  0
    6.4080   -1.8510   29.6490 C   0  0  0  0  0  0  0  0  0  0  0  0
    4.6950   -4.6800   28.6110 C   0  0  0  0  0  0  0  0  0  0  0  0
    4.3310   -4.1080   27.2440 C   0  0  0  0  0  0  0  0  0  0  0  0
    6.1120   -5.2370   23.7700 C   0  0  0  0  0  0  0  0  0  0  0  0
    6.5890   -5.5540   22.4950 C   0  0  0  0  0  0  0  0  0  0  0  0
  1  2  1  0
  2  3  2  0
  2  4  1  0
  4  5  1  0
  5  6  1  0
  6  7  1  0
  7  8  1  0
  8  9  2  0
  8 10  1  0
 10 11  1  0
 11 12  1  0
 12 13  1  0
 13 14  1  0
 14 15  2  0
 15 16  1  0
 16 17  2  0
 17 18  1  0
 18 19  1  0
 18 20  1  0
 18 21  1  0
 17 22  1  0
 14 23  1  0
 22 23  2  0
 13 24  1  0
 10 25  1  0
 24 25  1  0
  7 26  1  0
  4 27  1  0
 26 27  1  0
M  END
