piperidine-amides-17008-covalent
     RDKit          3D

 20 21  0  0  0  0  0  0  0  0999 V2000
    7.0410   -3.3770   19.3720 C   0  0  0  0  0  0  0  0  0  0  0  0
    6.4090   -4.2450   20.3810 C   0  0  0  0  0  0  0  0  0  0  0  0
    5.3920   -4.8760   19.9970 O   0  0  0  0  0  0  0  0  0  0  0  0
    6.9490   -4.4100   21.6890 N   0  0  0  0  0  0  0  0  0  0  0  0
    6.4670   -5.4730   22.4870 C   0  0  0  0  0  0  0  0  0  0  0  0
    5.8230   -5.0650   23.7470 C   0  0  0  0  0  0  0  0  0  0  0  0
    6.2350   -3.7780   24.3840 C   0  0  0  0  0  0  0  0  0  0  0  0
    5.1270   -3.2850   25.3120 C   0  0  0  0  0  0  0  0  0  0  0  0
    4.0040   -3.0950   24.8220 O   0  0  0  0  0  0  0  0  0  0  0  0
    5.2810   -3.0220   26.7080 N   0  0  0  0  0  0  0  0  0  0  0  0
    4.4490   -3.2620   27.7850 C   0  0  0  0  0  0  0  0  0  0  0  0
    5.2490   -3.7120   28.8970 C   0  0  0  0  0  0  0  0  0  0  0  0
    6.4480   -4.3400   28.1620 C   0  0  1  0  0  0  0  0  0  0  0  0
    6.0690   -5.5460   27.6020 C   0  0  0  0  0  0  0  0  0  0  0  0
    5.2870   -6.2400   28.5290 N   0  0  0  0  0  0  0  0  0  0  0  0
    4.5260   -7.3500   28.1050 C   0  0  0  0  0  0  0  0  0  0  0  0
    6.2240   -6.7210   29.5530 C   0  0  0  0  0  0  0  0  0  0  0  0
    6.5460   -3.1190   27.2520 C   0  0  0  0  0  0  0  0  0  0  0  0
    6.6930   -2.6960   23.4200 C   0  0  0  0  0  0  0  0  0  0  0  0
    7.6110   -3.3310   22.3860 C   0  0  0  0  0  0  0  0  0  0  0  0
  1  2  1  0
  2  3  2  0
  2  4  1  0
  4  5  1  0
  5  6  1  0
  6  7  1  0
  7  8  1  0
  8  9  2  0
  8 10  1  0
 10 11  1  0
 11 12  1  0
 12 13  1  0
 13 14  1  6
 14 15  1  0
 15 16  1  0
 15 17  1  0
 10 18  1  0
 13 18  1  0
  7 19  1  0
  4 20  1  0
 19 20  1  0
M  END
