piperidine-amides-11856-covalent
     RDKit          3D

 27 30  0  0  0  0  0  0  0  0999 V2000
    7.0770   -3.2770   19.3070 C   0  0  0  0  0  0  0  0  0  0  0  0
    6.3310   -4.0740   20.2810 C   0  0  0  0  0  0  0  0  0  0  0  0
    5.3170   -4.6770   19.9300 O   0  0  0  0  0  0  0  0  0  0  0  0
    6.7940   -4.2050   21.6400 N   0  0  0  0  0  0  0  0  0  0  0  0
    7.6560   -3.2010   22.2310 C   0  0  0  0  0  0  0  0  0  0  0  0
    7.2920   -2.9670   23.6720 C   0  0  0  0  0  0  0  0  0  0  0  0
    5.9570   -3.6470   23.8960 C   0  0  0  0  0  0  0  0  0  0  0  0
    5.3880   -3.4180   25.2610 C   0  0  0  0  0  0  0  0  0  0  0  0
    4.3770   -4.0250   25.6440 O   0  0  0  0  0  0  0  0  0  0  0  0
    5.9660   -2.4810   26.1470 N   0  0  0  0  0  0  0  0  0  0  0  0
    6.3270   -2.8750   27.4930 C   0  0  0  0  0  0  0  0  0  0  0  0
    5.2280   -3.5170   28.2910 C   0  0  0  0  0  0  0  0  0  0  0  0
    5.3250   -4.4530   29.2430 N   0  0  0  0  0  0  0  0  0  0  0  0
    4.1280   -4.7830   29.7540 C   0  0  0  0  0  0  0  0  0  0  0  0
    4.0440   -5.7340   30.7740 C   0  0  0  0  0  0  0  0  0  0  0  0
    5.0460   -6.5780   31.1380 C   0  0  0  0  0  0  0  0  0  0  0  0
    4.5560   -7.3670   32.2240 C   0  0  0  0  0  0  0  0  0  0  0  0
    5.0940   -8.3730   33.0090 C   0  0  0  0  0  0  0  0  0  0  0  0
    4.3540   -8.9690   34.0150 C   0  0  0  0  0  0  0  0  0  0  0  0
    3.0500   -8.5700   34.2630 C   0  0  0  0  0  0  0  0  0  0  0  0
    2.4990   -7.5080   33.4280 C   0  0  0  0  0  0  0  0  0  0  0  0
    3.2540   -6.9240   32.4270 C   0  0  0  0  0  0  0  0  0  0  0  0
    2.8800   -5.9090   31.5510 O   0  0  0  0  0  0  0  0  0  0  0  0
    2.9370   -4.1860   29.2930 C   0  0  0  0  0  0  0  0  0  0  0  0
    3.5190   -3.1090   28.0950 S   0  0  0  0  0  0  0  0  0  0  0  0
    6.0830   -5.1450   23.7170 C   0  0  0  0  0  0  0  0  0  0  0  0
    6.6620   -5.4630   22.3290 C   0  0  0  0  0  0  0  0  0  0  0  0
  1  2  1  0
  2  3  2  0
  2  4  1  0
  4  5  1  0
  5  6  1  0
  6  7  1  0
  7  8  1  0
  8  9  2  0
  8 10  1  0
 10 11  1  0
 11 12  1  0
 12 13  2  0
 13 14  1  0
 14 15  1  0
 15 16  2  0
 16 17  1  0
 17 18  2  0
 18 19  1  0
 19 20  2  0
 20 21  1  0
 17 22  1  0
 21 22  2  0
 15 23  1  0
 22 23  1  0
 14 24  2  0
 12 25  1  0
 24 25  1  0
  7 26  1  0
  4 27  1  0
 26 27  1  0
M  END
