piperidine-amides-24081-covalent
     RDKit          3D

 23 24  0  0  0  0  0  0  0  0999 V2000
    7.0960   -3.3230   19.2630 C   0  0  0  0  0  0  0  0  0  0  0  0
    6.4010   -4.1440   20.2680 C   0  0  0  0  0  0  0  0  0  0  0  0
    5.3300   -4.6970   19.9290 O   0  0  0  0  0  0  0  0  0  0  0  0
    6.9620   -4.3350   21.5440 N   0  0  0  0  0  0  0  0  0  0  0  0
    6.5220   -5.4640   22.2870 C   0  0  0  0  0  0  0  0  0  0  0  0
    5.8620   -5.1050   23.5330 C   0  0  0  0  0  0  0  0  0  0  0  0
    6.1050   -3.7080   23.9680 C   0  0  0  0  0  0  0  0  0  0  0  0
    5.6400   -3.4300   25.3630 C   0  0  0  0  0  0  0  0  0  0  0  0
    4.7330   -2.5890   25.5200 O   0  0  0  0  0  0  0  0  0  0  0  0
    6.1330   -4.0780   26.5150 N   0  0  0  0  0  0  0  0  0  0  0  0
    5.3810   -4.3330   27.6690 C   0  0  0  0  0  0  0  0  0  0  0  0
    6.2280   -4.5110   28.8220 C   0  0  0  0  0  0  0  0  0  0  0  0
    7.6130   -4.5590   28.1420 C   0  0  0  0  0  0  0  0  0  0  0  0
    7.5350   -4.0530   26.8520 C   0  0  2  0  0  0  0  0  0  0  0  0
    8.0020   -2.6890   27.4050 C   0  0  0  0  0  0  0  0  0  0  0  0
    6.6210   -2.1410   27.5260 C   0  0  0  0  0  0  0  0  0  0  0  0
    7.2040   -1.2320   28.6140 C   0  0  0  0  0  0  0  0  0  0  0  0
    8.3210   -4.7020   25.9030 C   0  0  0  0  0  0  0  0  0  0  0  0
    7.6130   -5.5120   25.0590 F   0  0  0  0  0  0  0  0  0  0  0  0
    9.1200   -5.5030   26.7240 F   0  0  0  0  0  0  0  0  0  0  0  0
    9.1170   -3.8460   25.1800 F   0  0  0  0  0  0  0  0  0  0  0  0
    7.5140   -3.2650   23.6520 C   0  0  0  0  0  0  0  0  0  0  0  0
    7.6290   -3.2060   22.1330 C   0  0  0  0  0  0  0  0  0  0  0  0
  1  2  1  0
  2  3  2  0
  2  4  1  0
  4  5  1  0
  5  6  1  0
  6  7  1  0
  7  8  1  0
  8  9  2  0
  8 10  1  0
 10 11  1  0
 11 12  1  0
 12 13  1  0
 10 14  1  0
 13 14  1  0
 14 15  1  1
 15 16  1  0
 16 17  1  0
 14 18  1  0
 18 19  1  0
 18 20  1  0
 18 21  1  0
  7 22  1  0
  4 23  1  0
 22 23  1  0
M  END
