piperidine-amides-27303-covalent
     RDKit          3D

 25 27  0  0  0  0  0  0  0  0999 V2000
    7.0330   -3.3790   19.4140 C   0  0  0  0  0  0  0  0  0  0  0  0
    6.4190   -4.2670   20.4030 C   0  0  0  0  0  0  0  0  0  0  0  0
    5.4170   -4.9220   20.0030 O   0  0  0  0  0  0  0  0  0  0  0  0
    6.9680   -4.3930   21.6910 N   0  0  0  0  0  0  0  0  0  0  0  0
    6.7760   -5.6050   22.4750 C   0  0  0  0  0  0  0  0  0  0  0  0
    6.1380   -5.1990   23.7720 C   0  0  0  0  0  0  0  0  0  0  0  0
    6.0420   -3.7070   23.7570 C   0  0  0  0  0  0  0  0  0  0  0  0
    5.3550   -3.0860   24.9080 C   0  0  0  0  0  0  0  0  0  0  0  0
    4.6630   -2.0930   24.6500 O   0  0  0  0  0  0  0  0  0  0  0  0
    5.3570   -3.4580   26.2540 N   0  0  0  0  0  0  0  0  0  0  0  0
    6.4030   -2.9910   27.0910 C   0  0  0  0  0  0  0  0  0  0  0  0
    6.6190   -3.9750   28.2380 C   0  0  0  0  0  0  0  0  0  0  0  0
    5.6320   -4.2770   29.0610 C   0  0  0  0  0  0  0  0  0  0  0  0
    5.5410   -3.2690   30.0450 O   0  0  0  0  0  0  0  0  0  0  0  0
    5.7440   -5.5360   29.5490 C   0  0  0  0  0  0  0  0  0  0  0  0
    4.5600   -6.1400   29.6330 N   0  0  0  0  0  0  0  0  0  0  0  0
    4.5670   -7.3150   29.0760 C   0  0  0  0  0  0  0  0  0  0  0  0
    5.6570   -7.9250   29.6190 C   0  0  0  0  0  0  0  0  0  0  0  0
    5.7400   -7.9750   30.8730 O   0  0  0  0  0  0  0  0  0  0  0  0
    4.7690   -7.2630   31.6260 C   0  0  0  0  0  0  0  0  0  0  0  0
    3.9600   -6.2580   30.8230 C   0  0  0  0  0  0  0  0  0  0  0  0
    4.5320   -4.2230   28.3290 C   0  0  0  0  0  0  0  0  0  0  0  0
    4.4470   -3.1340   27.3150 C   0  0  0  0  0  0  0  0  0  0  0  0
    7.3900   -3.0960   23.5730 C   0  0  0  0  0  0  0  0  0  0  0  0
    7.8050   -3.3180   22.2820 C   0  0  0  0  0  0  0  0  0  0  0  0
  1  2  1  0
  2  3  2  0
  2  4  1  0
  4  5  1  0
  5  6  1  0
  6  7  1  0
  7  8  1  0
  8  9  2  0
  8 10  1  0
 10 11  1  0
 11 12  1  0
 12 13  1  0
 13 14  1  0
 13 15  1  0
 15 16  1  0
 16 17  1  0
 17 18  1  0
 18 19  1  0
 19 20  1  0
 16 21  1  0
 20 21  1  0
 13 22  1  0
 10 23  1  0
 22 23  1  0
  7 24  1  0
  4 25  1  0
 24 25  1  0
M  END
