piperidine-amides-8366-covalent
     RDKit          3D

 24 26  0  0  0  0  0  0  0  0999 V2000
    7.1070   -3.2610   19.2040 C   0  0  0  0  0  0  0  0  0  0  0  0
    6.3530   -4.0010   20.2230 C   0  0  0  0  0  0  0  0  0  0  0  0
    5.3010   -4.5700   19.8890 O   0  0  0  0  0  0  0  0  0  0  0  0
    6.8520   -4.0810   21.5450 N   0  0  0  0  0  0  0  0  0  0  0  0
    6.5970   -5.2790   22.3080 C   0  0  0  0  0  0  0  0  0  0  0  0
    6.0900   -4.9430   23.6930 C   0  0  0  0  0  0  0  0  0  0  0  0
    6.2510   -3.4500   23.9090 C   0  0  0  0  0  0  0  0  0  0  0  0
    6.0470   -3.0580   25.3350 C   0  0  0  0  0  0  0  0  0  0  0  0
    4.9190   -3.2290   25.7960 O   0  0  0  0  0  0  0  0  0  0  0  0
    7.1540   -2.5130   25.9960 N   0  0  0  0  0  0  0  0  0  0  0  0
    7.3380   -2.6130   27.4020 C   0  0  0  0  0  0  0  0  0  0  0  0
    6.9000   -3.8120   27.9330 C   0  0  0  0  0  0  0  0  0  0  0  0
    7.6490   -4.9710   28.0760 C   0  0  0  0  0  0  0  0  0  0  0  0
    7.2140   -6.1750   28.6000 C   0  0  0  0  0  0  0  0  0  0  0  0
    5.8050   -6.2440   29.0590 C   0  0  0  0  0  0  0  0  0  0  0  0
    5.2590   -7.5530   29.6500 C   0  0  0  0  0  0  0  0  0  0  0  0
    3.8650   -7.6460   30.1120 C   0  0  0  0  0  0  0  0  0  0  0  0
    2.9850   -6.4460   29.9980 C   0  0  0  0  0  0  0  0  0  0  0  0
    3.6300   -5.1750   29.3890 C   0  0  0  0  0  0  0  0  0  0  0  0
    4.9340   -5.0320   28.9380 C   0  0  0  0  0  0  0  0  0  0  0  0
    5.4500   -3.8940   28.4100 C   0  0  0  0  0  0  0  0  0  0  0  0
    4.6730   -2.7660   28.2880 F   0  0  0  0  0  0  0  0  0  0  0  0
    7.5860   -2.9540   23.5040 C   0  0  0  0  0  0  0  0  0  0  0  0
    7.7640   -3.0860   22.0380 C   0  0  0  0  0  0  0  0  0  0  0  0
  1  2  1  0
  2  3  2  0
  2  4  1  0
  4  5  1  0
  5  6  1  0
  6  7  1  0
  7  8  1  0
  8  9  2  0
  8 10  1  0
 10 11  1  0
 11 12  1  0
 12 13  2  0
 13 14  1  0
 14 15  2  0
 15 16  1  0
 16 17  2  0
 17 18  1  0
 18 19  2  0
 15 20  1  0
 19 20  1  0
 12 21  1  0
 20 21  2  0
 21 22  1  0
  7 23  1  0
  4 24  1  0
 23 24  1  0
M  END
