piperidine-amides-35085-covalent
     RDKit          3D

 28 29  0  0  0  0  0  0  0  0999 V2000
    7.0590   -3.2860   19.2670 C   0  0  0  0  0  0  0  0  0  0  0  0
    6.3310   -4.0940   20.2830 C   0  0  0  0  0  0  0  0  0  0  0  0
    5.2900   -4.6280   19.9120 O   0  0  0  0  0  0  0  0  0  0  0  0
    6.8370   -4.2710   21.5770 N   0  0  0  0  0  0  0  0  0  0  0  0
    6.6010   -5.5000   22.2960 C   0  0  0  0  0  0  0  0  0  0  0  0
    5.7570   -5.2110   23.5090 C   0  0  0  0  0  0  0  0  0  0  0  0
    5.8520   -3.7240   23.8250 C   0  0  0  0  0  0  0  0  0  0  0  0
    5.3730   -3.4770   25.2080 C   0  0  0  0  0  0  0  0  0  0  0  0
    4.1540   -3.4130   25.4030 O   0  0  0  0  0  0  0  0  0  0  0  0
    6.2380   -3.3090   26.3040 N   0  0  0  0  0  0  0  0  0  0  0  0
    6.8600   -4.4840   26.9090 C   0  0  0  0  0  0  0  0  0  0  0  0
    5.8450   -5.4440   27.4700 C   0  0  0  0  0  0  0  0  0  0  0  0
    6.0260   -5.9660   28.7240 C   0  0  0  0  0  0  0  0  0  0  0  0
    5.2950   -7.0540   29.0600 C   0  0  0  0  0  0  0  0  0  0  0  0
    4.4050   -6.8520   30.0740 C   0  0  0  0  0  0  0  0  0  0  0  0
    3.2710   -7.7770   30.4610 C   0  0  0  0  0  0  0  0  0  0  0  0
    6.5240   -1.9760   26.7570 C   0  0  2  0  0  0  0  0  0  0  0  0
    6.7330   -1.6450   28.2160 C   0  0  0  0  0  0  0  0  0  0  0  0
    6.2430   -2.8710   28.9040 C   0  0  0  0  0  0  0  0  0  0  0  0
    5.8350   -0.9760   26.0990 C   0  0  0  0  0  0  0  0  0  0  0  0
    6.5030   -0.2980   24.9280 C   0  0  0  0  0  0  0  0  0  0  0  0
    5.8440    0.7880   24.1770 C   0  0  0  0  0  0  0  0  0  0  0  0
    4.4670    1.2490   24.5750 C   0  0  0  0  0  0  0  0  0  0  0  0
    3.6510    2.6570   23.5950 Br  0  0  0  0  0  0  0  0  0  0  0  0
    3.8820    0.5980   25.6540 C   0  0  0  0  0  0  0  0  0  0  0  0
    4.5660   -0.5240   26.4270 C   0  0  0  0  0  0  0  0  0  0  0  0
    7.2730   -3.1990   23.6670 C   0  0  0  0  0  0  0  0  0  0  0  0
    7.6080   -3.1980   22.1830 C   0  0  0  0  0  0  0  0  0  0  0  0
  1  2  1  0
  2  3  2  0
  2  4  1  0
  4  5  1  0
  5  6  1  0
  6  7  1  0
  7  8  1  0
  8  9  2  0
  8 10  1  0
 10 11  1  0
 11 12  1  0
 12 13  1  0
 13 14  1  0
 14 15  1  0
 15 16  1  0
 10 17  1  0
 17 18  1  1
 18 19  1  0
 17 20  1  0
 20 21  2  0
 21 22  1  0
 22 23  2  0
 23 24  1  0
 23 25  1  0
 20 26  1  0
 25 26  2  0
  7 27  1  0
  4 28  1  0
 27 28  1  0
M  END
