piperidine-amides-17018-covalent
     RDKit          3D

 20 21  0  0  0  0  0  0  0  0999 V2000
    7.0530   -3.3730   19.3570 C   0  0  0  0  0  0  0  0  0  0  0  0
    6.4150   -4.2220   20.3730 C   0  0  0  0  0  0  0  0  0  0  0  0
    5.3970   -4.8560   19.9980 O   0  0  0  0  0  0  0  0  0  0  0  0
    6.9680   -4.3590   21.6830 N   0  0  0  0  0  0  0  0  0  0  0  0
    6.6000   -5.4600   22.4950 C   0  0  0  0  0  0  0  0  0  0  0  0
    6.4050   -5.0620   23.8880 C   0  0  0  0  0  0  0  0  0  0  0  0
    5.9590   -3.6610   24.0480 C   0  0  0  0  0  0  0  0  0  0  0  0
    5.5020   -3.3420   25.4550 C   0  0  0  0  0  0  0  0  0  0  0  0
    4.2740   -3.2870   25.6640 O   0  0  0  0  0  0  0  0  0  0  0  0
    6.3580   -3.1190   26.5630 N   0  0  0  0  0  0  0  0  0  0  0  0
    6.6020   -4.0780   27.5840 C   0  0  0  0  0  0  0  0  0  0  0  0
    6.6270   -1.7130   26.9530 C   0  0  2  0  0  0  0  0  0  0  0  0
    7.1380   -1.4690   28.4130 C   0  0  0  0  0  0  0  0  0  0  0  0
    6.4290   -0.6960   29.3170 C   0  0  0  0  0  0  0  0  0  0  0  0
    6.1910    0.4210   28.3210 C   0  0  0  0  0  0  0  0  0  0  0  0
    5.1430    0.0050   27.4690 N   0  0  0  0  0  0  0  0  0  0  0  0
    3.9650   -0.2530   28.3110 C   0  0  0  0  0  0  0  0  0  0  0  0
    5.5160   -0.8390   26.5060 C   0  0  0  0  0  0  0  0  0  0  0  0
    6.8510   -2.6080   23.4240 C   0  0  0  0  0  0  0  0  0  0  0  0
    7.6790   -3.2730   22.3280 C   0  0  0  0  0  0  0  0  0  0  0  0
  1  2  1  0
  2  3  2  0
  2  4  1  0
  4  5  1  0
  5  6  1  0
  6  7  1  0
  7  8  1  0
  8  9  2  0
  8 10  1  0
 10 11  1  0
 12 10  1  1
 12 13  1  0
 13 14  1  0
 14 15  1  0
 15 16  1  0
 16 17  1  0
 12 18  1  0
 16 18  1  0
  7 19  1  0
  4 20  1  0
 19 20  1  0
M  END
