piperidine-amides-33654-covalent
     RDKit          3D

 30 33  0  0  0  0  0  0  0  0999 V2000
    7.0800   -3.3570   19.3630 C   0  0  0  0  0  0  0  0  0  0  0  0
    6.4240   -4.2110   20.3660 C   0  0  0  0  0  0  0  0  0  0  0  0
    5.3970   -4.8330   19.9860 O   0  0  0  0  0  0  0  0  0  0  0  0
    6.9650   -4.3660   21.6750 N   0  0  0  0  0  0  0  0  0  0  0  0
    6.4230   -5.3630   22.5210 C   0  0  0  0  0  0  0  0  0  0  0  0
    6.0220   -4.8910   23.8580 C   0  0  0  0  0  0  0  0  0  0  0  0
    6.6200   -3.6210   24.3720 C   0  0  0  0  0  0  0  0  0  0  0  0
    5.7270   -2.9490   25.3890 C   0  0  0  0  0  0  0  0  0  0  0  0
    4.6950   -2.4040   24.9660 O   0  0  0  0  0  0  0  0  0  0  0  0
    5.9900   -2.9360   26.7860 N   0  0  0  0  0  0  0  0  0  0  0  0
    6.0200   -4.1280   27.5460 C   0  0  0  0  0  0  0  0  0  0  0  0
    4.9730   -4.5590   28.4700 C   0  0  0  0  0  0  0  0  0  0  0  0
    3.7380   -3.7080   28.4390 C   0  0  0  0  0  0  0  0  0  0  0  0
    2.6610   -3.9510   29.2320 C   0  0  0  0  0  0  0  0  0  0  0  0
    2.7040   -5.1500   30.2040 C   0  0  0  0  0  0  0  0  0  0  0  0
    3.9530   -6.0290   30.2440 C   0  0  0  0  0  0  0  0  0  0  0  0
    5.1630   -5.7110   29.3140 C   0  0  0  0  0  0  0  0  0  0  0  0
    6.4550   -6.4660   29.2200 C   0  0  0  0  0  0  0  0  0  0  0  0
    5.6990   -1.8100   27.6350 C   0  0  1  0  0  0  0  0  0  0  0  0
    6.7120   -1.3850   28.7020 C   0  0  0  0  0  0  0  0  0  0  0  0
    6.2480   -0.2410   29.4280 N   0  0  2  0  0  0  0  0  0  0  0  0
    6.8940   -0.0230   30.5780 C   0  0  0  0  0  0  0  0  0  0  0  0
    7.4770    1.2070   30.8680 C   0  0  0  0  0  0  0  0  0  0  0  0
    4.7730   -0.4090   29.5720 C   0  0  0  0  0  0  0  0  0  0  0  0
    3.9540   -0.5360   28.3090 C   0  0  0  0  0  0  0  0  0  0  0  0
    4.8570   -0.7380   27.2880 C   0  0  1  0  0  0  0  0  0  0  0  0
    5.7900    0.4590   27.2390 C   0  0  0  0  0  0  0  0  0  0  0  0
    6.4440    0.7970   28.5810 C   0  0  0  0  0  0  0  0  0  0  0  0
    6.7980   -2.5980   23.2500 C   0  0  0  0  0  0  0  0  0  0  0  0
    7.7230   -3.2660   22.2360 C   0  0  0  0  0  0  0  0  0  0  0  0
  1  2  1  0
  2  3  2  0
  2  4  1  0
  4  5  1  0
  5  6  1  0
  6  7  1  0
  7  8  1  0
  8  9  2  0
  8 10  1  0
 10 11  1  0
 11 12  1  0
 12 13  2  0
 13 14  1  0
 14 15  2  0
 15 16  1  0
 12 17  1  0
 16 17  2  0
 17 18  1  0
 19 10  1  6
 19 20  1  0
 20 21  1  0
 21 22  1  1
 22 23  1  0
 21 24  1  0
 24 25  1  0
 19 26  1  0
 26 25  1  1
 26 27  1  0
 21 28  1  0
 27 28  1  0
  7 29  1  0
  4 30  1  0
 29 30  1  0
M  CHG  1  21   1
M  END
