piperidine-amides-917-covalent
     RDKit          3D

 24 26  0  0  0  0  0  0  0  0999 V2000
    7.1000   -3.2720   19.2450 C   0  0  0  0  0  0  0  0  0  0  0  0
    6.3450   -4.0760   20.2500 C   0  0  0  0  0  0  0  0  0  0  0  0
    5.2790   -4.6110   19.9020 O   0  0  0  0  0  0  0  0  0  0  0  0
    6.8700   -4.2670   21.5490 N   0  0  0  0  0  0  0  0  0  0  0  0
    6.5500   -5.4150   22.3540 C   0  0  0  0  0  0  0  0  0  0  0  0
    5.6200   -4.9200   23.4680 C   0  0  0  0  0  0  0  0  0  0  0  0
    6.3640   -3.8890   24.2540 C   0  0  0  0  0  0  0  0  0  0  0  0
    5.5580   -3.3300   25.3750 C   0  0  0  0  0  0  0  0  0  0  0  0
    4.6180   -2.6090   25.0310 O   0  0  0  0  0  0  0  0  0  0  0  0
    5.8450   -3.6010   26.7240 N   0  0  0  0  0  0  0  0  0  0  0  0
    6.0120   -4.8730   27.3470 C   0  0  0  0  0  0  0  0  0  0  0  0
    5.1180   -5.5750   28.1110 C   0  0  0  0  0  0  0  0  0  0  0  0
    3.8230   -5.9040   27.7800 C   0  0  0  0  0  0  0  0  0  0  0  0
    3.2590   -6.6420   28.8580 N   0  0  0  0  0  0  0  0  0  0  0  0
    2.0120   -7.1710   28.9640 C   0  0  0  0  0  0  0  0  0  0  0  0
    1.6340   -7.9160   30.1840 C   0  0  0  0  0  0  0  0  0  0  0  0
    0.0270   -8.6160   30.3460 Cl  0  0  0  0  0  0  0  0  0  0  0  0
    2.6510   -8.0690   31.3040 C   0  0  0  0  0  0  0  0  0  0  0  0
    4.0040   -7.4120   31.0290 C   0  0  0  0  0  0  0  0  0  0  0  0
    5.2460   -7.5300   32.2830 Cl  0  0  0  0  0  0  0  0  0  0  0  0
    4.2100   -6.7500   29.8250 C   0  0  0  0  0  0  0  0  0  0  0  0
    5.3290   -6.1080   29.3640 N   0  0  0  0  0  0  0  0  0  0  0  0
    6.8810   -2.7480   23.4420 C   0  0  0  0  0  0  0  0  0  0  0  0
    7.6050   -3.1920   22.1850 C   0  0  0  0  0  0  0  0  0  0  0  0
  1  2  1  0
  2  3  2  0
  2  4  1  0
  4  5  1  0
  5  6  1  0
  6  7  1  0
  7  8  1  0
  8  9  2  0
  8 10  1  0
 10 11  1  0
 11 12  1  0
 12 13  2  0
 13 14  1  0
 14 15  1  0
 15 16  2  0
 16 17  1  0
 16 18  1  0
 18 19  2  0
 19 20  1  0
 14 21  1  0
 19 21  1  0
 12 22  1  0
 21 22  2  0
  7 23  1  0
  4 24  1  0
 23 24  1  0
M  END
