piperidine-amides-182-covalent
     RDKit          3D

 26 28  0  0  0  0  0  0  0  0999 V2000
    7.0100   -3.3120   19.2240 C   0  0  0  0  0  0  0  0  0  0  0  0
    6.2680   -4.0110   20.2530 C   0  0  0  0  0  0  0  0  0  0  0  0
    5.2070   -4.5970   19.8910 O   0  0  0  0  0  0  0  0  0  0  0  0
    6.6750   -4.1330   21.6000 N   0  0  0  0  0  0  0  0  0  0  0  0
    6.6280   -5.5150   22.1430 C   0  0  0  0  0  0  0  0  0  0  0  0
    6.3650   -5.2640   23.6810 C   0  0  0  0  0  0  0  0  0  0  0  0
    5.9030   -3.8360   23.7890 C   0  0  0  0  0  0  0  0  0  0  0  0
    5.0030   -3.6090   25.0860 C   0  0  0  0  0  0  0  0  0  0  0  0
    3.8650   -3.9620   24.8420 O   0  0  0  0  0  0  0  0  0  0  0  0
    5.6360   -3.1100   26.0690 N   0  0  0  0  0  0  0  0  0  0  0  0
    6.1230   -2.5180   27.1820 C   0  0  0  0  0  0  0  0  0  0  0  0
    6.1790   -1.2820   27.7730 C   0  0  1  0  0  0  0  0  0  0  0  0
    5.2680   -0.9330   28.8230 C   0  0  0  0  0  0  0  0  0  0  0  0
    6.3770   -0.7460   29.7180 C   0  0  0  0  0  0  0  0  0  0  0  0
    7.2810   -1.2270   28.7790 N   0  0  0  0  0  0  0  0  0  0  0  0
    8.2960   -0.5350   28.0020 C   0  0  0  0  0  0  0  0  0  0  0  0
    8.5270   -1.5540   27.0780 C   0  0  0  0  0  0  0  0  0  0  0  0
    8.4930   -2.8240   27.8300 C   0  0  0  0  0  0  0  0  0  0  0  0
    8.7570   -3.9400   26.7840 C   0  0  0  0  0  0  0  0  0  0  0  0
    9.0140   -3.8570   25.2760 C   0  0  0  0  0  0  0  0  0  0  0  0
    9.2200   -4.8740   24.5950 O   0  0  0  0  0  0  0  0  0  0  0  0
    9.0980   -6.1110   25.2330 C   0  0  0  0  0  0  0  0  0  0  0  0
    8.9940   -2.5350   24.7760 C   0  0  0  0  0  0  0  0  0  0  0  0
    8.7730   -1.5000   25.5900 C   0  0  0  0  0  0  0  0  0  0  0  0
    6.8840   -2.7800   23.4150 C   0  0  0  0  0  0  0  0  0  0  0  0
    7.5300   -3.1660   22.2390 C   0  0  0  0  0  0  0  0  0  0  0  0
  1  2  1  0
  2  3  2  0
  2  4  1  0
  4  5  1  0
  5  6  1  0
  6  7  1  0
  7  8  1  0
  8  9  2  0
  8 10  1  0
 10 11  1  0
 12 11  1  1
 12 13  1  0
 13 14  1  0
 12 15  1  0
 14 15  1  0
 15 16  1  0
 16 17  1  0
 17 18  2  0
 18 19  1  0
 19 20  2  0
 20 21  1  0
 21 22  1  0
 20 23  1  0
 17 24  1  0
 23 24  2  0
  7 25  1  0
  4 26  1  0
 25 26  1  0
M  END
