piperidine-amides-29912-covalent
     RDKit          3D

 27 29  0  0  0  0  0  0  0  0999 V2000
    6.9900   -3.3880   19.3940 C   0  0  0  0  0  0  0  0  0  0  0  0
    6.3530   -4.2610   20.3770 C   0  0  0  0  0  0  0  0  0  0  0  0
    5.4160   -4.9680   20.0110 O   0  0  0  0  0  0  0  0  0  0  0  0
    6.8300   -4.3390   21.7460 N   0  0  0  0  0  0  0  0  0  0  0  0
    7.6260   -3.2700   22.3260 C   0  0  0  0  0  0  0  0  0  0  0  0
    7.2280   -2.9680   23.7530 C   0  0  0  0  0  0  0  0  0  0  0  0
    5.9250   -3.6970   24.0330 C   0  0  0  0  0  0  0  0  0  0  0  0
    5.2270   -3.2150   25.2870 C   0  0  0  0  0  0  0  0  0  0  0  0
    4.4200   -2.2730   25.2190 O   0  0  0  0  0  0  0  0  0  0  0  0
    5.4190   -3.7840   26.5830 N   0  0  0  0  0  0  0  0  0  0  0  0
    6.5670   -3.4390   27.2610 C   0  0  0  0  0  0  0  0  0  0  0  0
    6.7950   -4.6450   28.1640 C   0  0  0  0  0  0  0  0  0  0  0  0
    5.8180   -4.9960   29.0510 C   0  0  0  0  0  0  0  0  0  0  0  0
    5.2980   -6.1280   28.9310 O   0  0  0  0  0  0  0  0  0  0  0  0
    5.4010   -7.0590   29.9720 C   0  0  0  0  0  0  0  0  0  0  0  0
    4.4280   -7.0030   30.9540 C   0  0  0  0  0  0  0  0  0  0  0  0
    4.9330   -6.9870   32.3230 C   0  0  0  0  0  0  0  0  0  0  0  0
    4.6930   -7.9300   33.3020 C   0  0  0  0  0  0  0  0  0  0  0  0
    3.5940   -7.9340   34.1550 C   0  0  0  0  0  0  0  0  0  0  0  0
    3.4200   -8.9210   35.1210 C   0  0  0  0  0  0  0  0  0  0  0  0
    4.4060   -9.9830   35.2540 C   0  0  0  0  0  0  0  0  0  0  0  0
    5.4980   -9.9860   34.4180 C   0  0  0  0  0  0  0  0  0  0  0  0
    5.6210   -8.9730   33.4680 C   0  0  0  0  0  0  0  0  0  0  0  0
    4.8030   -4.0630   28.9130 C   0  0  0  0  0  0  0  0  0  0  0  0
    4.3250   -3.9100   27.4570 C   0  0  0  0  0  0  0  0  0  0  0  0
    6.1010   -5.1720   23.8640 C   0  0  0  0  0  0  0  0  0  0  0  0
    6.6110   -5.5530   22.5060 C   0  0  0  0  0  0  0  0  0  0  0  0
  1  2  1  0
  2  3  2  0
  2  4  1  0
  4  5  1  0
  5  6  1  0
  6  7  1  0
  7  8  1  0
  8  9  2  0
  8 10  1  0
 10 11  1  0
 11 12  1  0
 12 13  1  0
 13 14  1  0
 14 15  1  0
 15 16  1  0
 16 17  1  0
 17 18  1  0
 18 19  2  0
 19 20  1  0
 20 21  2  0
 21 22  1  0
 18 23  1  0
 22 23  2  0
 13 24  1  0
 10 25  1  0
 24 25  1  0
  7 26  1  0
  4 27  1  0
 26 27  1  0
M  END
