piperidine-amides-10575-covalent
     RDKit          3D

 23 24  0  0  0  0  0  0  0  0999 V2000
    7.0650   -3.3630   19.3650 C   0  0  0  0  0  0  0  0  0  0  0  0
    6.3710   -4.1610   20.3740 C   0  0  0  0  0  0  0  0  0  0  0  0
    5.3730   -4.8180   19.9790 O   0  0  0  0  0  0  0  0  0  0  0  0
    6.8500   -4.2030   21.6930 N   0  0  0  0  0  0  0  0  0  0  0  0
    7.7300   -3.1780   22.2190 C   0  0  0  0  0  0  0  0  0  0  0  0
    7.4070   -2.9850   23.6730 C   0  0  0  0  0  0  0  0  0  0  0  0
    6.0610   -3.5680   23.9800 C   0  0  0  0  0  0  0  0  0  0  0  0
    5.5900   -3.2210   25.3460 C   0  0  0  0  0  0  0  0  0  0  0  0
    4.3530   -3.1920   25.5300 O   0  0  0  0  0  0  0  0  0  0  0  0
    6.4310   -2.9160   26.4360 N   0  0  0  0  0  0  0  0  0  0  0  0
    6.3660   -1.6420   27.1320 C   0  0  0  0  0  0  0  0  0  0  0  0
    6.1880   -0.4040   26.3390 C   0  0  0  0  0  0  0  0  0  0  0  0
    6.1800    0.5720   27.3980 N   0  0  0  0  0  0  0  0  0  0  0  0
    6.3360   -0.1200   28.5520 N   0  0  0  0  0  0  0  0  0  0  0  0
    6.3560    0.6360   29.6700 C   0  0  0  0  0  0  0  0  0  0  0  0
    5.2700    1.4720   29.4910 C   0  0  0  0  0  0  0  0  0  0  0  0
    4.2070    1.0570   28.7630 F   0  0  0  0  0  0  0  0  0  0  0  0
    4.8190    1.8820   30.7550 F   0  0  0  0  0  0  0  0  0  0  0  0
    5.7720    2.5650   28.8400 F   0  0  0  0  0  0  0  0  0  0  0  0
    6.4740   -1.5800   28.6390 C   0  0  0  0  0  0  0  0  0  0  0  0
    6.5610   -2.9040   28.2590 C   0  0  0  0  0  0  0  0  0  0  0  0
    6.0460   -5.0910   23.8510 C   0  0  0  0  0  0  0  0  0  0  0  0
    6.5540   -5.4170   22.4580 C   0  0  0  0  0  0  0  0  0  0  0  0
  1  2  1  0
  2  3  2  0
  2  4  1  0
  4  5  1  0
  5  6  1  0
  6  7  1  0
  7  8  1  0
  8  9  2  0
  8 10  1  0
 10 11  1  0
 11 12  1  0
 12 13  2  0
 13 14  1  0
 14 15  1  0
 15 16  1  0
 16 17  1  0
 16 18  1  0
 16 19  1  0
 11 20  2  0
 14 20  1  0
 20 21  1  0
  7 22  1  0
  4 23  1  0
 22 23  1  0
M  END
