piperidine-amides-13680-covalent
     RDKit          3D

 28 30  0  0  0  0  0  0  0  0999 V2000
    7.1850   -3.2260   19.1970 C   0  0  0  0  0  0  0  0  0  0  0  0
    6.3600   -3.9250   20.2200 C   0  0  0  0  0  0  0  0  0  0  0  0
    5.2900   -4.4560   19.8610 O   0  0  0  0  0  0  0  0  0  0  0  0
    6.8150   -4.0240   21.5560 N   0  0  0  0  0  0  0  0  0  0  0  0
    6.2830   -5.0220   22.4110 C   0  0  0  0  0  0  0  0  0  0  0  0
    5.2440   -4.3290   23.3110 C   0  0  0  0  0  0  0  0  0  0  0  0
    5.8140   -3.0310   23.8240 C   0  0  0  0  0  0  0  0  0  0  0  0
    5.5350   -2.7920   25.2810 C   0  0  0  0  0  0  0  0  0  0  0  0
    4.3330   -2.7150   25.5510 O   0  0  0  0  0  0  0  0  0  0  0  0
    6.5150   -2.6660   26.2920 N   0  0  0  0  0  0  0  0  0  0  0  0
    6.9090   -3.7100   27.1730 C   0  0  1  0  0  0  0  0  0  0  0  0
    6.1000   -4.2330   28.1530 C   0  0  0  0  0  0  0  0  0  0  0  0
    6.5440   -5.4220   28.7810 C   0  0  0  0  0  0  0  0  0  0  0  0
    5.8570   -6.0900   29.7720 C   0  0  0  0  0  0  0  0  0  0  0  0
    4.5630   -5.5680   30.2470 C   0  0  0  0  0  0  0  0  0  0  0  0
    3.6610   -6.4010   31.5080 Cl  0  0  0  0  0  0  0  0  0  0  0  0
    4.0200   -4.2940   29.6300 C   0  0  0  0  0  0  0  0  0  0  0  0
    4.9120   -3.6920   28.5500 C   0  0  0  0  0  0  0  0  0  0  0  0
    7.3530   -4.7350   26.4220 C   0  0  0  0  0  0  0  0  0  0  0  0
    8.6830   -5.2530   26.5630 C   0  0  0  0  0  0  0  0  0  0  0  0
    8.9330   -6.3570   25.5940 C   0  0  0  0  0  0  0  0  0  0  0  0
    8.2120   -7.0250   24.6030 C   0  0  0  0  0  0  0  0  0  0  0  0
    6.8500   -6.3170   24.6780 C   0  0  0  0  0  0  0  0  0  0  0  0
    5.9700   -6.7180   23.9130 O   0  0  0  0  0  0  0  0  0  0  0  0
    6.5510   -7.4410   22.8290 C   0  0  0  0  0  0  0  0  0  0  0  0
    6.5090   -5.2830   25.5120 C   0  0  0  0  0  0  0  0  0  0  0  0
    7.2940   -2.8350   23.5300 C   0  0  0  0  0  0  0  0  0  0  0  0
    7.5570   -2.9710   22.1640 C   0  0  0  0  0  0  0  0  0  0  0  0
  1  2  1  0
  2  3  2  0
  2  4  1  0
  4  5  1  0
  5  6  1  0
  6  7  1  0
  7  8  1  0
  8  9  2  0
  8 10  1  0
 11 10  1  6
 11 12  1  0
 12 13  2  0
 13 14  1  0
 14 15  2  0
 15 16  1  0
 15 17  1  0
 12 18  1  0
 17 18  2  0
 11 19  1  0
 19 20  2  0
 20 21  1  0
 21 22  2  0
 22 23  1  0
 23 24  1  0
 24 25  1  0
 19 26  1  0
 23 26  2  0
  7 27  1  0
  4 28  1  0
 27 28  1  0
M  END
