piperidine-amides-33400-covalent
     RDKit          3D

 29 31  0  0  0  0  0  0  0  0999 V2000
    7.0570   -3.3610   19.3970 C   0  0  0  0  0  0  0  0  0  0  0  0
    6.4110   -4.2280   20.3970 C   0  0  0  0  0  0  0  0  0  0  0  0
    5.4160   -4.8880   20.0000 O   0  0  0  0  0  0  0  0  0  0  0  0
    6.9200   -4.3510   21.7240 N   0  0  0  0  0  0  0  0  0  0  0  0
    6.6020   -5.5250   22.4760 C   0  0  0  0  0  0  0  0  0  0  0  0
    6.2340   -5.2560   23.8650 C   0  0  0  0  0  0  0  0  0  0  0  0
    6.1710   -3.8200   24.1870 C   0  0  0  0  0  0  0  0  0  0  0  0
    5.5570   -3.4960   25.5380 C   0  0  0  0  0  0  0  0  0  0  0  0
    4.4330   -2.9680   25.5090 O   0  0  0  0  0  0  0  0  0  0  0  0
    6.1180   -3.7220   26.8340 N   0  0  0  0  0  0  0  0  0  0  0  0
    5.9490   -2.8560   27.9410 C   0  0  0  0  0  0  0  0  0  0  0  0
    5.4510   -3.5490   29.0890 C   0  0  0  0  0  0  0  0  0  0  0  0
    5.1830   -4.7720   29.4680 N   0  0  0  0  0  0  0  0  0  0  0  0
    4.0750   -5.1710   30.2970 C   0  0  0  0  0  0  0  0  0  0  0  0
    2.8660   -4.5710   30.0280 O   0  0  0  0  0  0  0  0  0  0  0  0
    4.2240   -6.1010   31.3040 C   0  0  0  0  0  0  0  0  0  0  0  0
    5.4820   -6.9470   31.1230 C   0  0  0  0  0  0  0  0  0  0  0  0
    5.5930   -7.9530   32.2710 C   0  0  0  0  0  0  0  0  0  0  0  0
    4.4270   -7.8660   33.3040 C   0  0  0  0  0  0  0  0  0  0  0  0
    3.2020   -6.9930   33.4170 C   0  0  0  0  0  0  0  0  0  0  0  0
    2.2890   -7.0850   34.4200 O   0  0  0  0  0  0  0  0  0  0  0  0
    2.1700   -8.2610   35.2050 C   0  0  0  0  0  0  0  0  0  0  0  0
    2.8230   -8.1500   36.3980 F   0  0  0  0  0  0  0  0  0  0  0  0
    0.8350   -8.5430   35.2610 F   0  0  0  0  0  0  0  0  0  0  0  0
    3.1080   -6.0290   32.3110 C   0  0  0  0  0  0  0  0  0  0  0  0
    5.4650   -5.5280   28.4180 C   0  0  0  0  0  0  0  0  0  0  0  0
    6.3450   -5.0440   27.4610 C   0  0  0  0  0  0  0  0  0  0  0  0
    7.3950   -3.0700   23.7920 C   0  0  0  0  0  0  0  0  0  0  0  0
    7.6740   -3.2590   22.3140 C   0  0  0  0  0  0  0  0  0  0  0  0
  1  2  1  0
  2  3  2  0
  2  4  1  0
  4  5  1  0
  5  6  1  0
  6  7  1  0
  7  8  1  0
  8  9  2  0
  8 10  1  0
 10 11  1  0
 11 12  1  0
 12 13  1  0
 13 14  1  0
 14 15  2  0
 14 16  1  0
 16 17  2  0
 17 18  1  0
 18 19  2  0
 19 20  1  0
 20 21  1  0
 21 22  1  0
 22 23  1  0
 22 24  1  0
 16 25  1  0
 20 25  2  0
 13 26  1  0
 10 27  1  0
 26 27  1  0
  7 28  1  0
  4 29  1  0
 28 29  1  0
M  END
