piperidine-amides-33175-covalent
     RDKit          3D

 28 31  0  0  0  0  0  0  0  0999 V2000
    7.1340   -3.2930   19.2640 C   0  0  0  0  0  0  0  0  0  0  0  0
    6.3570   -4.0190   20.2800 C   0  0  0  0  0  0  0  0  0  0  0  0
    5.2900   -4.5580   19.8950 O   0  0  0  0  0  0  0  0  0  0  0  0
    6.8210   -4.1520   21.6160 N   0  0  0  0  0  0  0  0  0  0  0  0
    6.4130   -5.2590   22.3910 C   0  0  0  0  0  0  0  0  0  0  0  0
    6.4620   -5.0300   23.8390 C   0  0  0  0  0  0  0  0  0  0  0  0
    6.7070   -3.6300   24.3000 C   0  0  0  0  0  0  0  0  0  0  0  0
    5.6420   -3.2370   25.2920 C   0  0  0  0  0  0  0  0  0  0  0  0
    4.4550   -3.2940   24.9270 O   0  0  0  0  0  0  0  0  0  0  0  0
    5.8820   -2.7990   26.6240 N   0  0  0  0  0  0  0  0  0  0  0  0
    5.7900   -1.4860   27.0370 C   0  0  0  0  0  0  0  0  0  0  0  0
    4.6620   -1.7950   27.8440 C   0  0  0  0  0  0  0  0  0  0  0  0
    4.7310   -1.2830   29.3050 C   0  0  0  0  0  0  0  0  0  0  0  0
    4.7840    0.1470   29.5940 N   0  0  0  0  0  0  0  0  0  0  0  0
    4.8150    0.0920   31.0240 C   0  0  0  0  0  0  0  0  0  0  0  0
    4.8710    1.4750   31.6970 C   0  0  0  0  0  0  0  0  0  0  0  0
    6.0300    1.3860   32.6330 C   0  0  0  0  0  0  0  0  0  0  0  0
    6.7680    0.2030   32.7130 F   0  0  0  0  0  0  0  0  0  0  0  0
    6.1000    2.7830   33.3250 C   0  0  0  0  0  0  0  0  0  0  0  0
    5.2210    4.0220   33.1480 C   0  0  0  0  0  0  0  0  0  0  0  0
    4.0880    3.9040   32.1420 C   0  0  0  0  0  0  0  0  0  0  0  0
    3.9240    2.5870   31.4040 C   0  0  0  0  0  0  0  0  0  0  0  0
    2.6240    2.3900   30.2220 Cl  0  0  0  0  0  0  0  0  0  0  0  0
    4.7830   -1.2100   31.3850 N   0  0  0  0  0  0  0  0  0  0  0  0
    4.7320   -2.1000   30.4160 O   0  0  0  0  0  0  0  0  0  0  0  0
    4.9230   -3.3440   27.6150 C   0  0  0  0  0  0  0  0  0  0  0  0
    6.8000   -2.6150   23.2060 C   0  0  0  0  0  0  0  0  0  0  0  0
    7.6330   -3.1440   22.2370 C   0  0  0  0  0  0  0  0  0  0  0  0
  1  2  1  0
  2  3  2  0
  2  4  1  0
  4  5  1  0
  5  6  1  0
  6  7  1  0
  7  8  1  0
  8  9  2  0
  8 10  1  0
 10 11  1  0
 11 12  1  0
 12 13  1  0
 13 14  2  0
 14 15  1  0
 15 16  1  0
 16 17  2  0
 17 18  1  0
 17 19  1  0
 19 20  2  0
 20 21  1  0
 16 22  1  0
 21 22  2  0
 22 23  1  0
 15 24  2  0
 13 25  1  0
 24 25  1  0
 10 26  1  0
 12 26  1  0
  7 27  1  0
  4 28  1  0
 27 28  1  0
M  END
