piperidine-amides-28935-covalent
     RDKit          3D

 25 26  0  0  0  0  0  0  0  0999 V2000
    7.0650   -3.3360   19.3580 C   0  0  0  0  0  0  0  0  0  0  0  0
    6.4070   -4.1960   20.3410 C   0  0  0  0  0  0  0  0  0  0  0  0
    5.3880   -4.8090   19.9800 O   0  0  0  0  0  0  0  0  0  0  0  0
    6.9550   -4.3570   21.6440 N   0  0  0  0  0  0  0  0  0  0  0  0
    6.6210   -5.5270   22.4010 C   0  0  0  0  0  0  0  0  0  0  0  0
    5.9050   -5.1010   23.6480 C   0  0  0  0  0  0  0  0  0  0  0  0
    6.6860   -3.9540   24.2630 C   0  0  0  0  0  0  0  0  0  0  0  0
    5.8980   -3.3540   25.3880 C   0  0  0  0  0  0  0  0  0  0  0  0
    4.8250   -2.8420   25.0830 O   0  0  0  0  0  0  0  0  0  0  0  0
    6.4070   -3.4130   26.6870 N   0  0  0  0  0  0  0  0  0  0  0  0
    6.8320   -4.6720   27.2200 C   0  0  0  0  0  0  0  0  0  0  0  0
    5.8470   -5.6040   27.5290 C   0  0  0  0  0  0  0  0  0  0  0  0
    5.8950   -6.4980   28.5690 C   0  0  0  0  0  0  0  0  0  0  0  0
    6.1930   -2.1990   27.4830 C   0  0  0  0  0  0  0  0  0  0  0  0
    5.1380   -1.2550   27.2660 N   0  0  0  0  0  0  0  0  0  0  0  0
    5.1230   -0.1320   28.1990 C   0  0  0  0  0  0  0  0  0  0  0  0
    4.0210    0.9460   28.0610 C   0  0  0  0  0  0  0  0  0  0  0  0
    2.9200    0.3740   27.8730 O   0  0  0  0  0  0  0  0  0  0  0  0
    4.2520    2.2340   28.1390 O   0  0  0  0  0  0  0  0  0  0  0  0
    3.0980    2.9030   28.5300 C   0  0  0  0  0  0  0  0  0  0  0  0
    2.4630    2.5130   29.8340 C   0  0  0  0  0  0  0  0  0  0  0  0
    6.1130   -0.0820   29.1880 C   0  0  0  0  0  0  0  0  0  0  0  0
    7.0920   -1.5300   28.9050 S   0  0  0  0  0  0  0  0  0  0  0  0
    6.8380   -2.8330   23.2490 C   0  0  0  0  0  0  0  0  0  0  0  0
    7.7040   -3.3140   22.2980 C   0  0  0  0  0  0  0  0  0  0  0  0
  1  2  1  0
  2  3  2  0
  2  4  1  0
  4  5  1  0
  5  6  1  0
  6  7  1  0
  7  8  1  0
  8  9  2  0
  8 10  1  0
 10 11  1  0
 11 12  1  0
 12 13  2  3
 10 14  1  0
 14 15  2  0
 15 16  1  0
 16 17  1  0
 17 18  2  0
 17 19  1  0
 19 20  1  0
 20 21  1  0
 16 22  2  0
 14 23  1  0
 22 23  1  0
  7 24  1  0
  4 25  1  0
 24 25  1  0
M  END
