piperidine-amides-28663-covalent
     RDKit          3D

 25 26  0  0  0  0  0  0  0  0999 V2000
    7.1140   -3.2900   19.2650 C   0  0  0  0  0  0  0  0  0  0  0  0
    6.4120   -4.0860   20.2720 C   0  0  0  0  0  0  0  0  0  0  0  0
    5.3530   -4.6490   19.9350 O   0  0  0  0  0  0  0  0  0  0  0  0
    6.9620   -4.2420   21.5700 N   0  0  0  0  0  0  0  0  0  0  0  0
    7.7330   -3.1640   22.1330 C   0  0  0  0  0  0  0  0  0  0  0  0
    7.4820   -3.0790   23.6060 C   0  0  0  0  0  0  0  0  0  0  0  0
    6.0820   -3.6130   23.8050 C   0  0  0  0  0  0  0  0  0  0  0  0
    5.5000   -3.2300   25.1230 C   0  0  0  0  0  0  0  0  0  0  0  0
    4.2780   -3.1200   25.1440 O   0  0  0  0  0  0  0  0  0  0  0  0
    6.3230   -3.0230   26.2170 N   0  0  0  0  0  0  0  0  0  0  0  0
    6.8440   -1.7090   26.4410 C   0  0  0  0  0  0  0  0  0  0  0  0
    6.0400   -3.8250   27.3630 C   0  0  0  0  0  0  0  0  0  0  0  0
    6.5640   -3.3990   28.5450 C   0  0  0  0  0  0  0  0  0  0  0  0
    6.5520   -2.5830   29.6370 O   0  0  0  0  0  0  0  0  0  0  0  0
    5.4320   -2.5730   28.2660 N   0  0  0  0  0  0  0  0  0  0  0  0
    5.5040   -1.2910   28.8670 C   0  0  0  0  0  0  0  0  0  0  0  0
    6.7920   -0.7650   29.4140 C   0  0  0  0  0  0  0  0  0  0  0  0
    6.9150    0.6270   30.0890 C   0  0  0  0  0  0  0  0  0  0  0  0
    5.7040    1.5110   30.2060 C   0  0  0  0  0  0  0  0  0  0  0  0
    4.4200    0.9470   29.6330 C   0  0  0  0  0  0  0  0  0  0  0  0
    4.4220   -0.4530   28.9910 C   0  0  0  0  0  0  0  0  0  0  0  0
    2.8690   -1.0640   28.3340 S   0  0  0  0  0  0  0  0  0  0  0  0
    3.1490   -0.7750   26.6740 C   0  0  0  0  0  0  0  0  0  0  0  0
    6.1690   -5.1010   23.7000 C   0  0  0  0  0  0  0  0  0  0  0  0
    6.5920   -5.4340   22.2990 C   0  0  0  0  0  0  0  0  0  0  0  0
  1  2  1  0
  2  3  2  0
  2  4  1  0
  4  5  1  0
  5  6  1  0
  6  7  1  0
  7  8  1  0
  8  9  2  0
  8 10  1  0
 10 11  1  0
 10 12  1  0
 12 13  1  0
 13 14  2  0
 13 15  1  0
 15 16  1  0
 16 17  2  0
 17 18  1  0
 18 19  2  0
 19 20  1  0
 16 21  1  0
 20 21  2  0
 21 22  1  0
 22 23  1  0
  7 24  1  0
  4 25  1  0
 24 25  1  0
M  END
