piperidine-amides-17917-covalent
     RDKit          3D

 21 24  0  0  0  0  0  0  0  0999 V2000
    7.1920   -4.1210   19.6700 C   0  0  0  0  0  0  0  0  0  0  0  0
    6.0750   -4.0580   20.4400 C   0  0  0  0  0  0  0  0  0  0  0  0
    5.0160   -4.2320   19.7720 O   0  0  0  0  0  0  0  0  0  0  0  0
    6.2170   -3.9470   21.8200 N   0  0  0  0  0  0  0  0  0  0  0  0
    6.1270   -5.2840   22.4860 C   0  0  0  0  0  0  0  0  0  0  0  0
    5.7630   -4.9180   23.9750 C   0  0  0  0  0  0  0  0  0  0  0  0
    6.2380   -3.4990   24.1170 C   0  0  0  0  0  0  0  0  0  0  0  0
    5.9290   -2.7480   25.4770 C   0  0  0  0  0  0  0  0  0  0  0  0
    6.5370   -1.7120   25.5170 O   0  0  0  0  0  0  0  0  0  0  0  0
    5.1150   -3.3920   26.1850 N   0  0  0  0  0  0  0  0  0  0  0  0
    3.9460   -3.7330   26.7910 C   0  0  0  0  0  0  0  0  0  0  0  0
    3.6190   -4.7450   27.5800 C   0  0  0  0  0  0  0  0  0  0  0  0
    4.8750   -5.0810   27.8400 C   0  0  2  0  0  0  0  0  0  0  0  0
    5.8590   -4.4700   26.9230 C   0  0  0  0  0  0  0  0  0  0  0  0
    5.1280   -6.4120   28.0310 O   0  0  0  0  0  0  0  0  0  0  0  0
    6.4670   -6.3340   28.3080 C   0  0  0  0  0  0  0  0  0  0  0  0
    6.6280   -5.1110   28.9970 C   0  0  1  0  0  0  0  0  0  0  0  0
    6.8150   -3.7670   28.5090 C   0  0  0  0  0  0  0  0  0  0  0  0
    5.4580   -4.2350   28.8380 C   0  0  1  0  0  0  0  0  0  0  0  0
    7.5770   -3.3300   23.5150 C   0  0  0  0  0  0  0  0  0  0  0  0
    7.3340   -3.1090   22.2010 C   0  0  0  0  0  0  0  0  0  0  0  0
  1  2  1  0
  2  3  2  0
  2  4  1  0
  4  5  1  0
  5  6  1  0
  6  7  1  0
  7  8  1  0
  8  9  2  0
  8 10  1  0
 10 11  1  0
 11 12  1  0
 13 12  1  6
 10 14  1  0
 13 14  1  0
 13 15  1  0
 15 16  1  0
 17 16  1  6
 17 18  1  0
 13 19  1  0
 17 19  1  0
 19 18  1  6
  7 20  1  0
  4 21  1  0
 20 21  1  0
M  END
