piperidine-amides-2342-covalent
     RDKit          3D

 27 29  0  0  0  0  0  0  0  0999 V2000
    7.1080   -3.3260   19.3110 C   0  0  0  0  0  0  0  0  0  0  0  0
    6.3630   -4.1310   20.3030 C   0  0  0  0  0  0  0  0  0  0  0  0
    5.3200   -4.6640   19.9300 O   0  0  0  0  0  0  0  0  0  0  0  0
    6.8940   -4.2890   21.5830 N   0  0  0  0  0  0  0  0  0  0  0  0
    7.7030   -3.2580   22.1800 C   0  0  0  0  0  0  0  0  0  0  0  0
    6.9750   -2.6990   23.3600 C   0  0  0  0  0  0  0  0  0  0  0  0
    6.4850   -3.8560   24.2280 C   0  0  0  0  0  0  0  0  0  0  0  0
    5.7980   -3.2640   25.3930 C   0  0  0  0  0  0  0  0  0  0  0  0
    4.6130   -2.9170   25.2880 O   0  0  0  0  0  0  0  0  0  0  0  0
    6.4690   -3.1110   26.6180 N   0  0  0  0  0  0  0  0  0  0  0  0
    6.4650   -1.8310   27.2930 C   0  0  0  0  0  0  0  0  0  0  0  0
    5.9430   -0.5690   26.6680 C   0  0  0  0  0  0  0  0  0  0  0  0
    5.8750    0.6880   27.1930 C   0  0  0  0  0  0  0  0  0  0  0  0
    6.3300    0.8910   28.4630 C   0  0  0  0  0  0  0  0  0  0  0  0
    6.8500   -0.1550   29.1970 C   0  0  0  0  0  0  0  0  0  0  0  0
    7.3140    0.4390   30.7290 S   0  0  0  0  0  0  0  0  0  0  0  0
    7.0020    1.8980   30.7450 O   0  0  0  0  0  0  0  0  0  0  0  0
    6.5210   -0.2840   31.7770 O   0  0  0  0  0  0  0  0  0  0  0  0
    8.9870    0.1470   31.0720 N   0  0  0  0  0  0  0  0  0  0  0  0
    9.5440    1.3570   31.7160 C   0  0  0  0  0  0  0  0  0  0  0  0
    9.0800    2.2990   32.8480 C   0  0  0  0  0  0  0  0  0  0  0  0
    9.8980    3.3500   33.1710 N   0  0  0  0  0  0  0  0  0  0  0  0
   10.8840    3.2080   32.3580 N   0  0  0  0  0  0  0  0  0  0  0  0
   10.8270    2.1310   31.4780 C   0  0  0  0  0  0  0  0  0  0  0  0
    6.9530   -1.5670   28.6620 C   0  0  0  0  0  0  0  0  0  0  0  0
    5.6380   -4.8510   23.4860 C   0  0  0  0  0  0  0  0  0  0  0  0
    6.5070   -5.4280   22.3820 C   0  0  0  0  0  0  0  0  0  0  0  0
  1  2  1  0
  2  3  2  0
  2  4  1  0
  4  5  1  0
  5  6  1  0
  6  7  1  0
  7  8  1  0
  8  9  2  0
  8 10  1  0
 10 11  1  0
 11 12  2  0
 12 13  1  0
 13 14  2  0
 14 15  1  0
 15 16  1  0
 16 17  2  0
 16 18  2  0
 16 19  1  0
 19 20  1  0
 20 21  1  0
 21 22  2  0
 22 23  1  0
 20 24  2  0
 23 24  1  0
 11 25  1  0
 15 25  2  0
  7 26  1  0
  4 27  1  0
 26 27  1  0
M  END
