piperidine-amides-11778-covalent
     RDKit          3D

 27 29  0  0  0  0  0  0  0  0999 V2000
    7.0300   -3.3460   19.3000 C   0  0  0  0  0  0  0  0  0  0  0  0
    6.3420   -4.1550   20.3010 C   0  0  0  0  0  0  0  0  0  0  0  0
    5.3580   -4.8130   19.9740 O   0  0  0  0  0  0  0  0  0  0  0  0
    6.8370   -4.2270   21.6520 N   0  0  0  0  0  0  0  0  0  0  0  0
    7.6830   -3.1780   22.1730 C   0  0  0  0  0  0  0  0  0  0  0  0
    7.4230   -2.9660   23.6330 C   0  0  0  0  0  0  0  0  0  0  0  0
    6.0830   -3.5900   23.9640 C   0  0  0  0  0  0  0  0  0  0  0  0
    5.6370   -3.1950   25.3280 C   0  0  0  0  0  0  0  0  0  0  0  0
    4.4320   -3.1740   25.6530 O   0  0  0  0  0  0  0  0  0  0  0  0
    6.6130   -2.8370   26.2840 N   0  0  0  0  0  0  0  0  0  0  0  0
    6.5110   -1.5870   27.0090 C   0  0  0  0  0  0  0  0  0  0  0  0
    7.0230   -1.6750   28.4150 C   0  0  0  0  0  0  0  0  0  0  0  0
    6.9960   -0.5700   29.2380 C   0  0  0  0  0  0  0  0  0  0  0  0
    6.4780    0.6350   28.7330 C   0  0  0  0  0  0  0  0  0  0  0  0
    6.0120    0.6930   27.4320 C   0  0  0  0  0  0  0  0  0  0  0  0
    5.4520    1.8500   26.7580 C   0  0  0  0  0  0  0  0  0  0  0  0
    6.0150   -0.3690   26.5650 C   0  0  0  0  0  0  0  0  0  0  0  0
    5.5680   -0.2590   25.3410 O   0  0  0  0  0  0  0  0  0  0  0  0
    4.6560    0.3070   24.4150 C   0  0  0  0  0  0  0  0  0  0  0  0
    5.0250    1.6140   24.1060 C   0  0  0  0  0  0  0  0  0  0  0  0
    4.0230    2.6880   23.8720 C   0  0  0  0  0  0  0  0  0  0  0  0
    4.2290    4.0290   23.5570 C   0  0  0  0  0  0  0  0  0  0  0  0
    5.5140    4.5010   23.4280 C   0  0  0  0  0  0  0  0  0  0  0  0
    6.6310    3.5660   23.6290 C   0  0  0  0  0  0  0  0  0  0  0  0
    6.3490    2.1030   23.9720 C   0  0  0  0  0  0  0  0  0  0  0  0
    6.0980   -5.0750   23.7460 C   0  0  0  0  0  0  0  0  0  0  0  0
    6.6590   -5.4460   22.4110 C   0  0  0  0  0  0  0  0  0  0  0  0
  1  2  1  0
  2  3  2  0
  2  4  1  0
  4  5  1  0
  5  6  1  0
  6  7  1  0
  7  8  1  0
  8  9  2  0
  8 10  1  0
 10 11  1  0
 11 12  2  0
 12 13  1  0
 13 14  2  0
 14 15  1  0
 15 16  1  0
 11 17  1  0
 15 17  2  0
 17 18  1  0
 18 19  1  0
 19 20  1  0
 20 21  2  0
 21 22  1  0
 22 23  2  0
 23 24  1  0
 20 25  1  0
 24 25  2  0
  7 26  1  0
  4 27  1  0
 26 27  1  0
M  END
