piperidine-amides-13360-covalent
     RDKit          3D

 25 27  0  0  0  0  0  0  0  0999 V2000
    7.0270   -3.3600   19.3240 C   0  0  0  0  0  0  0  0  0  0  0  0
    6.3760   -4.1920   20.3600 C   0  0  0  0  0  0  0  0  0  0  0  0
    5.3820   -4.8460   19.9860 O   0  0  0  0  0  0  0  0  0  0  0  0
    6.8910   -4.2680   21.6690 N   0  0  0  0  0  0  0  0  0  0  0  0
    6.6220   -5.4210   22.4700 C   0  0  0  0  0  0  0  0  0  0  0  0
    6.0420   -5.0780   23.7680 C   0  0  0  0  0  0  0  0  0  0  0  0
    6.0360   -3.6260   24.0240 C   0  0  0  0  0  0  0  0  0  0  0  0
    5.5660   -3.2910   25.4000 C   0  0  0  0  0  0  0  0  0  0  0  0
    4.3410   -3.3710   25.6020 O   0  0  0  0  0  0  0  0  0  0  0  0
    6.4150   -2.9030   26.4570 N   0  0  0  0  0  0  0  0  0  0  0  0
    6.6570   -1.4830   26.8370 C   0  0  2  0  0  0  0  0  0  0  0  0
    7.1340   -1.3580   28.2480 C   0  0  0  0  0  0  0  0  0  0  0  0
    6.3650   -0.3940   29.0400 C   0  0  0  0  0  0  0  0  0  0  0  0
    5.3310    0.0220   28.1050 N   0  0  0  0  0  0  0  0  0  0  0  0
    4.4550    1.1260   28.2140 C   0  0  0  0  0  0  0  0  0  0  0  0
    5.5110   -0.5960   26.8070 C   0  0  1  0  0  0  0  0  0  0  0  0
    5.5420    0.3880   25.8610 C   0  0  0  0  0  0  0  0  0  0  0  0
    6.2260    1.5360   26.1300 C   0  0  0  0  0  0  0  0  0  0  0  0
    6.3220    2.5830   25.2610 C   0  0  0  0  0  0  0  0  0  0  0  0
    5.6850    2.4770   24.0260 C   0  0  0  0  0  0  0  0  0  0  0  0
    5.8050    3.8280   22.9010 Cl  0  0  0  0  0  0  0  0  0  0  0  0
    4.9100    1.2940   23.6050 C   0  0  0  0  0  0  0  0  0  0  0  0
    4.8910    0.2150   24.6650 C   0  0  0  0  0  0  0  0  0  0  0  0
    7.3940   -3.0260   23.6280 C   0  0  0  0  0  0  0  0  0  0  0  0
    7.6980   -3.2000   22.2520 C   0  0  0  0  0  0  0  0  0  0  0  0
  1  2  1  0
  2  3  2  0
  2  4  1  0
  4  5  1  0
  5  6  1  0
  6  7  1  0
  7  8  1  0
  8  9  2  0
  8 10  1  0
 11 10  1  1
 11 12  1  0
 12 13  1  0
 13 14  1  0
 14 15  1  0
 11 16  1  0
 14 16  1  0
 16 17  1  6
 17 18  2  0
 18 19  1  0
 19 20  2  0
 20 21  1  0
 20 22  1  0
 17 23  1  0
 22 23  2  0
  7 24  1  0
  4 25  1  0
 24 25  1  0
M  END
