piperidine-amides-5540-covalent
     RDKit          3D

 19 19  0  0  0  0  0  0  0  0999 V2000
    7.0810   -3.2840   19.2500 C   0  0  0  0  0  0  0  0  0  0  0  0
    6.3550   -4.0350   20.2780 C   0  0  0  0  0  0  0  0  0  0  0  0
    5.3480   -4.6850   19.9390 O   0  0  0  0  0  0  0  0  0  0  0  0
    6.7910   -4.0770   21.6190 N   0  0  0  0  0  0  0  0  0  0  0  0
    7.7320   -3.0950   22.1420 C   0  0  0  0  0  0  0  0  0  0  0  0
    7.4210   -2.9260   23.6030 C   0  0  0  0  0  0  0  0  0  0  0  0
    6.1050   -3.5530   23.9280 C   0  0  0  0  0  0  0  0  0  0  0  0
    5.5890   -3.2460   25.2860 C   0  0  0  0  0  0  0  0  0  0  0  0
    4.4460   -2.7170   25.4080 O   0  0  0  0  0  0  0  0  0  0  0  0
    6.2790   -3.5070   26.4890 N   0  0  0  0  0  0  0  0  0  0  0  0
    5.7460   -4.5200   27.4300 C   0  0  1  0  0  0  0  0  0  0  0  0
    5.8810   -5.8700   26.8480 C   0  0  0  0  0  0  0  0  0  0  0  0
    4.6590   -6.6930   26.8260 C   0  0  0  0  0  0  0  0  0  0  0  0
    6.3530   -4.5300   28.8060 C   0  0  0  0  0  0  0  0  0  0  0  0
    5.3400   -5.4030   29.5250 C   0  0  2  0  0  0  0  0  0  0  0  0
    4.2800   -4.4960   30.0280 C   0  0  0  0  0  0  0  0  0  0  0  0
    5.9300   -6.1000   30.6030 O   0  0  0  0  0  0  0  0  0  0  0  0
    6.2160   -5.0370   23.6660 C   0  0  0  0  0  0  0  0  0  0  0  0
    6.5940   -5.3200   22.3420 C   0  0  0  0  0  0  0  0  0  0  0  0
  1  2  1  0
  2  3  2  0
  2  4  1  0
  4  5  1  0
  5  6  1  0
  6  7  1  0
  7  8  1  0
  8  9  2  0
  8 10  1  0
 10 11  1  0
 11 12  1  6
 12 13  1  0
 11 14  1  0
 14 15  1  0
 15 16  1  1
 15 17  1  0
  7 18  1  0
  4 19  1  0
 18 19  1  0
M  END
