piperidine-amides-3766-covalent
     RDKit          3D

 23 24  0  0  0  0  0  0  0  0999 V2000
    7.1640   -3.2710   19.1920 C   0  0  0  0  0  0  0  0  0  0  0  0
    6.4120   -4.0230   20.2110 C   0  0  0  0  0  0  0  0  0  0  0  0
    5.3040   -4.5030   19.8690 O   0  0  0  0  0  0  0  0  0  0  0  0
    6.9560   -4.2470   21.4980 N   0  0  0  0  0  0  0  0  0  0  0  0
    7.6500   -3.1650   22.1010 C   0  0  0  0  0  0  0  0  0  0  0  0
    7.1470   -2.7630   23.4050 C   0  0  0  0  0  0  0  0  0  0  0  0
    6.4820   -3.8070   24.2160 C   0  0  0  0  0  0  0  0  0  0  0  0
    5.7960   -3.1800   25.3940 C   0  0  0  0  0  0  0  0  0  0  0  0
    4.6230   -2.7810   25.2630 O   0  0  0  0  0  0  0  0  0  0  0  0
    6.4430   -3.0230   26.6370 N   0  0  0  0  0  0  0  0  0  0  0  0
    6.1570   -3.6340   27.8880 C   0  0  0  0  0  0  0  0  0  0  0  0
    5.1070   -4.6340   28.0880 C   0  0  0  0  0  0  0  0  0  0  0  0
    3.7540   -3.9310   28.3460 C   0  0  0  0  0  0  0  0  0  0  0  0
    3.7250   -3.0580   29.4170 C   0  0  0  0  0  0  0  0  0  0  0  0
    3.2660   -3.1930   27.2890 F   0  0  0  0  0  0  0  0  0  0  0  0
    2.8280   -4.8930   28.6570 F   0  0  0  0  0  0  0  0  0  0  0  0
    4.9120   -5.3660   26.6910 C   0  0  0  0  0  0  0  0  0  0  0  0
    3.9950   -6.5410   26.7250 C   0  0  0  0  0  0  0  0  0  0  0  0
    4.6130   -7.4670   27.5520 O   0  0  0  0  0  0  0  0  0  0  0  0
    5.1000   -7.0460   28.7440 C   0  0  0  0  0  0  0  0  0  0  0  0
    5.3950   -5.6370   29.1800 C   0  0  0  0  0  0  0  0  0  0  0  0
    5.5660   -4.6930   23.3940 C   0  0  0  0  0  0  0  0  0  0  0  0
    6.4130   -5.3100   22.2780 C   0  0  0  0  0  0  0  0  0  0  0  0
  1  2  1  0
  2  3  2  0
  2  4  1  0
  4  5  1  0
  5  6  1  0
  6  7  1  0
  7  8  1  0
  8  9  2  0
  8 10  1  0
 10 11  1  0
 12 11  1  0
 12 13  1  0
 13 14  1  0
 13 15  1  0
 13 16  1  0
 12 17  1  0
 17 18  1  0
 18 19  1  0
 19 20  1  0
 12 21  1  0
 20 21  1  0
  7 22  1  0
  4 23  1  0
 22 23  1  0
M  END
