piperidine-amides-17111-covalent
     RDKit          3D

 20 21  0  0  0  0  0  0  0  0999 V2000
    7.0830   -3.2940   19.2460 C   0  0  0  0  0  0  0  0  0  0  0  0
    6.3680   -4.0620   20.2840 C   0  0  0  0  0  0  0  0  0  0  0  0
    5.3040   -4.6170   19.9170 O   0  0  0  0  0  0  0  0  0  0  0  0
    6.8780   -4.2130   21.6040 N   0  0  0  0  0  0  0  0  0  0  0  0
    6.6150   -5.4280   22.3030 C   0  0  0  0  0  0  0  0  0  0  0  0
    6.1600   -5.2050   23.6670 C   0  0  0  0  0  0  0  0  0  0  0  0
    6.0640   -3.7770   24.0010 C   0  0  0  0  0  0  0  0  0  0  0  0
    5.4200   -3.5500   25.3420 C   0  0  0  0  0  0  0  0  0  0  0  0
    4.1800   -3.6070   25.3950 O   0  0  0  0  0  0  0  0  0  0  0  0
    6.0940   -3.2570   26.5460 N   0  0  0  0  0  0  0  0  0  0  0  0
    6.0210   -2.0250   27.1450 C   0  0  0  0  0  0  0  0  0  0  0  0
    5.4960   -2.6400   28.2930 C   0  0  0  0  0  0  0  0  0  0  0  0
    6.0830   -2.4620   29.4110 O   0  0  0  0  0  0  0  0  0  0  0  0
    6.3120   -1.1360   29.6510 C   0  0  0  0  0  0  0  0  0  0  0  0
    7.6460   -0.8610   29.4680 C   0  0  0  0  0  0  0  0  0  0  0  0
    6.6770   -0.1240   28.5560 C   0  0  0  0  0  0  0  0  0  0  0  0
    6.3210   -0.5480   31.0010 C   0  0  0  0  0  0  0  0  0  0  0  0
    5.7110   -4.0340   27.7710 C   0  0  0  0  0  0  0  0  0  0  0  0
    7.3450   -3.0290   23.7360 C   0  0  0  0  0  0  0  0  0  0  0  0
    7.6560   -3.1520   22.2440 C   0  0  0  0  0  0  0  0  0  0  0  0
  1  2  1  0
  2  3  2  0
  2  4  1  0
  4  5  1  0
  5  6  1  0
  6  7  1  0
  7  8  1  0
  8  9  2  0
  8 10  1  0
 10 11  1  0
 11 12  1  0
 12 13  1  0
 14 13  1  0
 14 15  1  0
 14 16  1  0
 14 17  1  0
 10 18  1  0
 12 18  1  0
  7 19  1  0
  4 20  1  0
 19 20  1  0
M  END
