piperidine-amides-19332-covalent
     RDKit          3D

 22 23  0  0  0  0  0  0  0  0999 V2000
    7.1320   -3.3760   19.4980 C   0  0  0  0  0  0  0  0  0  0  0  0
    6.4110   -4.1890   20.4520 C   0  0  0  0  0  0  0  0  0  0  0  0
    5.4580   -4.9170   20.0120 O   0  0  0  0  0  0  0  0  0  0  0  0
    6.7630   -4.2050   21.8310 N   0  0  0  0  0  0  0  0  0  0  0  0
    7.7950   -3.1930   22.2280 C   0  0  0  0  0  0  0  0  0  0  0  0
    7.6790   -3.1450   23.7990 C   0  0  0  0  0  0  0  0  0  0  0  0
    6.2640   -3.5600   24.0330 C   0  0  0  0  0  0  0  0  0  0  0  0
    5.4790   -2.8930   25.2650 C   0  0  0  0  0  0  0  0  0  0  0  0
    4.5740   -2.2330   24.7880 O   0  0  0  0  0  0  0  0  0  0  0  0
    5.9280   -3.1950   26.4350 N   0  0  0  0  0  0  0  0  0  0  0  0
    6.1340   -3.9520   27.5640 C   0  0  0  0  0  0  0  0  0  0  0  0
    5.9740   -5.2680   27.9350 C   0  0  0  0  0  0  0  0  0  0  0  0
    5.0940   -5.9400   27.0600 C   0  0  0  0  0  0  0  0  0  0  0  0
    4.4690   -7.1380   27.6540 C   0  0  0  0  0  0  0  0  0  0  0  0
    6.2510   -1.9790   27.2230 C   0  0  0  0  0  0  0  0  0  0  0  0
    5.8370   -0.7650   26.6020 C   0  0  0  0  0  0  0  0  0  0  0  0
    5.8780    0.6270   26.8960 C   0  0  0  0  0  0  0  0  0  0  0  0
    6.4930    0.4460   28.0640 N   0  0  0  0  0  0  0  0  0  0  0  0
    6.9820   -0.6490   28.8450 C   0  0  0  0  0  0  0  0  0  0  0  0
    6.9500   -2.1660   28.5520 C   0  0  0  0  0  0  0  0  0  0  0  0
    6.1170   -5.0740   23.8510 C   0  0  0  0  0  0  0  0  0  0  0  0
    6.6360   -5.4350   22.6180 C   0  0  0  0  0  0  0  0  0  0  0  0
  1  2  1  0
  2  3  2  0
  2  4  1  0
  4  5  1  0
  5  6  1  0
  6  7  1  0
  7  8  1  0
  8  9  2  0
  8 10  1  0
 10 11  1  0
 11 12  1  0
 12 13  1  0
 13 14  1  0
 10 15  1  0
 15 16  2  0
 16 17  1  0
 17 18  2  0
 18 19  1  0
 15 20  1  0
 19 20  2  0
  7 21  1  0
  4 22  1  0
 21 22  1  0
M  END
