piperidine-amides-10940-covalent
     RDKit          3D

 21 22  0  0  0  0  0  0  0  0999 V2000
    7.1340   -3.3120   19.2600 C   0  0  0  0  0  0  0  0  0  0  0  0
    6.3620   -4.0370   20.2690 C   0  0  0  0  0  0  0  0  0  0  0  0
    5.3210   -4.6220   19.9230 O   0  0  0  0  0  0  0  0  0  0  0  0
    6.8170   -4.1170   21.5990 N   0  0  0  0  0  0  0  0  0  0  0  0
    7.7440   -3.1330   22.1240 C   0  0  0  0  0  0  0  0  0  0  0  0
    7.4680   -3.0330   23.5980 C   0  0  0  0  0  0  0  0  0  0  0  0
    6.1170   -3.5900   23.9280 C   0  0  0  0  0  0  0  0  0  0  0  0
    5.6680   -3.3510   25.3200 C   0  0  0  0  0  0  0  0  0  0  0  0
    4.5100   -3.7160   25.6780 O   0  0  0  0  0  0  0  0  0  0  0  0
    6.4580   -2.7120   26.3000 N   0  0  0  0  0  0  0  0  0  0  0  0
    6.6700   -1.2460   26.2570 C   0  0  0  0  0  0  0  0  0  0  0  0
    5.3460   -0.5710   26.2280 C   0  0  0  0  0  0  0  0  0  0  0  0
    4.6800   -0.2090   24.9440 C   0  0  0  0  0  0  0  0  0  0  0  0
    4.5740    1.2290   25.2120 N   0  0  0  0  0  0  0  0  0  0  0  0
    5.4290    1.9650   24.1040 S   0  0  0  0  0  0  0  0  0  0  0  0
    7.0960    1.4210   24.0340 C   0  0  0  0  0  0  0  0  0  0  0  0
    4.7600    1.7690   22.8030 O   0  0  0  0  0  0  0  0  0  0  0  0
    5.4160    3.4410   24.4460 O   0  0  0  0  0  0  0  0  0  0  0  0
    5.3360    0.9050   26.4110 C   0  0  0  0  0  0  0  0  0  0  0  0
    6.1010   -5.0510   23.6220 C   0  0  0  0  0  0  0  0  0  0  0  0
    6.4770   -5.3060   22.3280 C   0  0  0  0  0  0  0  0  0  0  0  0
  1  2  1  0
  2  3  2  0
  2  4  1  0
  4  5  1  0
  5  6  1  0
  6  7  1  0
  7  8  1  0
  8  9  2  0
  8 10  1  0
 10 11  1  0
 11 12  1  0
 12 13  1  0
 13 14  1  0
 14 15  1  0
 15 16  1  0
 15 17  2  0
 15 18  2  0
 12 19  1  0
 14 19  1  0
  7 20  1  0
  4 21  1  0
 20 21  1  0
M  END
