piperidine-amides-19893-covalent
     RDKit          3D

 22 24  0  0  0  0  0  0  0  0999 V2000
    7.0680   -3.2710   19.2600 C   0  0  0  0  0  0  0  0  0  0  0  0
    6.3260   -4.0620   20.2810 C   0  0  0  0  0  0  0  0  0  0  0  0
    5.2870   -4.6000   19.9040 O   0  0  0  0  0  0  0  0  0  0  0  0
    6.8190   -4.2220   21.5820 N   0  0  0  0  0  0  0  0  0  0  0  0
    6.6830   -5.4850   22.2670 C   0  0  0  0  0  0  0  0  0  0  0  0
    5.9960   -5.2850   23.5890 C   0  0  0  0  0  0  0  0  0  0  0  0
    6.0080   -3.8110   23.9650 C   0  0  0  0  0  0  0  0  0  0  0  0
    5.6630   -3.7280   25.4000 C   0  0  0  0  0  0  0  0  0  0  0  0
    5.6120   -2.6210   25.9440 O   0  0  0  0  0  0  0  0  0  0  0  0
    5.3620   -4.9000   26.1430 N   0  0  0  0  0  0  0  0  0  0  0  0
    3.9770   -5.2040   26.3510 C   0  0  0  0  0  0  0  0  0  0  0  0
    4.3510   -5.3110   27.7830 C   0  0  0  0  0  0  0  0  0  0  0  0
    3.7200   -4.2330   28.5740 N   0  0  0  0  0  0  0  0  0  0  0  0
    2.3880   -4.0160   28.0090 C   0  0  0  0  0  0  0  0  0  0  0  0
    1.7530   -3.3760   29.0210 C   0  0  0  0  0  0  0  0  0  0  0  0
    2.5700   -2.5070   29.6930 C   0  0  0  0  0  0  0  0  0  0  0  0
    3.7680   -2.9430   30.5200 C   0  0  0  0  0  0  0  0  0  0  0  0
    3.8130   -4.3160   29.9190 C   0  0  0  0  0  0  0  0  0  0  0  0
    3.9210   -5.4270   30.7010 O   0  0  0  0  0  0  0  0  0  0  0  0
    5.8580   -5.0330   27.5290 C   0  0  0  0  0  0  0  0  0  0  0  0
    7.2400   -3.0770   23.6070 C   0  0  0  0  0  0  0  0  0  0  0  0
    7.6320   -3.1840   22.1750 C   0  0  0  0  0  0  0  0  0  0  0  0
  1  2  1  0
  2  3  2  0
  2  4  1  0
  4  5  1  0
  5  6  1  0
  6  7  1  0
  7  8  1  0
  8  9  2  0
  8 10  1  0
 10 11  1  0
 11 12  1  0
 12 13  1  0
 13 14  1  0
 14 15  1  0
 15 16  1  0
 16 17  1  0
 13 18  1  0
 17 18  1  0
 18 19  2  0
 10 20  1  0
 12 20  1  0
  7 21  1  0
  4 22  1  0
 21 22  1  0
M  END
