piperidine-amides-6882-covalent
     RDKit          3D

 23 24  0  0  0  0  0  0  0  0999 V2000
    7.1250   -3.2930   19.2990 C   0  0  0  0  0  0  0  0  0  0  0  0
    6.3090   -4.0440   20.2670 C   0  0  0  0  0  0  0  0  0  0  0  0
    5.2700   -4.6310   19.9060 O   0  0  0  0  0  0  0  0  0  0  0  0
    6.7150   -4.1400   21.5990 N   0  0  0  0  0  0  0  0  0  0  0  0
    7.5030   -3.0540   22.1310 C   0  0  0  0  0  0  0  0  0  0  0  0
    7.4280   -3.1410   23.6500 C   0  0  0  0  0  0  0  0  0  0  0  0
    6.0740   -3.7120   23.9800 C   0  0  0  0  0  0  0  0  0  0  0  0
    5.6960   -3.5300   25.4080 C   0  0  0  0  0  0  0  0  0  0  0  0
    4.4730   -3.5710   25.6680 O   0  0  0  0  0  0  0  0  0  0  0  0
    6.6430   -3.2950   26.4590 N   0  0  0  0  0  0  0  0  0  0  0  0
    7.7830   -4.1370   26.6880 C   0  0  0  0  0  0  0  0  0  0  0  0
    8.9000   -3.4440   25.9530 C   0  0  0  0  0  0  0  0  0  0  0  0
   10.2020   -3.8900   25.9300 C   0  0  0  0  0  0  0  0  0  0  0  0
   11.1860   -3.2130   25.2240 C   0  0  0  0  0  0  0  0  0  0  0  0
   10.9160   -2.0490   24.4990 C   0  0  0  0  0  0  0  0  0  0  0  0
   11.8720   -1.4070   23.8030 O   0  0  0  0  0  0  0  0  0  0  0  0
   11.9050   -1.4230   22.4270 C   0  0  0  0  0  0  0  0  0  0  0  0
   13.2770   -1.0580   21.9530 C   0  0  0  0  0  0  0  0  0  0  0  0
   12.6780   -2.3390   21.5440 C   0  0  0  0  0  0  0  0  0  0  0  0
    9.6400   -1.6030   24.5270 C   0  0  0  0  0  0  0  0  0  0  0  0
    8.6180   -2.2960   25.2570 C   0  0  0  0  0  0  0  0  0  0  0  0
    6.0860   -5.1670   23.6220 C   0  0  0  0  0  0  0  0  0  0  0  0
    6.4780   -5.3550   22.3180 C   0  0  0  0  0  0  0  0  0  0  0  0
  1  2  1  0
  2  3  2  0
  2  4  1  0
  4  5  1  0
  5  6  1  0
  6  7  1  0
  7  8  1  0
  8  9  2  0
  8 10  1  0
 10 11  1  0
 11 12  1  0
 12 13  2  0
 13 14  1  0
 14 15  2  0
 15 16  1  0
 16 17  1  0
 17 18  1  0
 17 19  1  0
 15 20  1  0
 12 21  1  0
 20 21  2  0
  7 22  1  0
  4 23  1  0
 22 23  1  0
M  END
