piperidine-amides-30620-covalent
     RDKit          3D

 27 29  0  0  0  0  0  0  0  0999 V2000
    7.1360   -3.2720   19.1910 C   0  0  0  0  0  0  0  0  0  0  0  0
    6.3810   -4.0250   20.1930 C   0  0  0  0  0  0  0  0  0  0  0  0
    5.2920   -4.5270   19.8780 O   0  0  0  0  0  0  0  0  0  0  0  0
    6.8920   -4.2540   21.4810 N   0  0  0  0  0  0  0  0  0  0  0  0
    6.5090   -5.4040   22.2480 C   0  0  0  0  0  0  0  0  0  0  0  0
    5.7390   -4.8350   23.4100 C   0  0  0  0  0  0  0  0  0  0  0  0
    6.5300   -3.8110   24.1840 C   0  0  0  0  0  0  0  0  0  0  0  0
    5.7900   -3.3520   25.3770 C   0  0  0  0  0  0  0  0  0  0  0  0
    4.5230   -3.3640   25.3770 O   0  0  0  0  0  0  0  0  0  0  0  0
    6.4250   -2.8720   26.5440 N   0  0  0  0  0  0  0  0  0  0  0  0
    6.9520   -1.4940   26.5460 C   0  0  0  0  0  0  0  0  0  0  0  0
    6.0580   -3.4440   27.8540 C   0  0  0  0  0  0  0  0  0  0  0  0
    4.5990   -3.2990   28.1080 C   0  0  2  0  0  0  0  0  0  0  0  0
    4.1010   -1.9350   27.6900 C   0  0  0  0  0  0  0  0  0  0  0  0
    3.5990   -1.1820   28.8960 C   0  0  2  0  0  0  0  0  0  0  0  0
    4.2600    0.0890   29.0300 F   0  0  0  0  0  0  0  0  0  0  0  0
    3.8110   -2.1290   30.0130 C   0  0  0  0  0  0  0  0  0  0  0  0
    4.1380   -3.4260   29.5050 N   0  0  0  0  0  0  0  0  0  0  0  0
    3.2370   -4.3870   29.8290 C   0  0  0  0  0  0  0  0  0  0  0  0
    2.6240   -4.4680   31.0940 C   0  0  0  0  0  0  0  0  0  0  0  0
    3.0720   -4.0060   32.3010 N   0  0  0  0  0  0  0  0  0  0  0  0
    2.1140   -4.3190   33.2860 C   0  0  0  0  0  0  0  0  0  0  0  0
    1.0050   -5.0360   32.5580 C   0  0  0  0  0  0  0  0  0  0  0  0
    1.3890   -5.0790   31.2710 N   0  0  0  0  0  0  0  0  0  0  0  0
    0.6670   -5.6430   30.2940 C   0  0  0  0  0  0  0  0  0  0  0  0
    6.9460   -2.6780   23.3060 C   0  0  0  0  0  0  0  0  0  0  0  0
    7.5980   -3.1680   22.0800 C   0  0  0  0  0  0  0  0  0  0  0  0
  1  2  1  0
  2  3  2  0
  2  4  1  0
  4  5  1  0
  5  6  1  0
  6  7  1  0
  7  8  1  0
  8  9  2  0
  8 10  1  0
 10 11  1  0
 10 12  1  0
 13 12  1  1
 13 14  1  0
 14 15  1  0
 15 16  1  1
 15 17  1  0
 13 18  1  0
 17 18  1  0
 18 19  1  0
 19 20  1  0
 20 21  2  0
 21 22  1  0
 22 23  2  0
 20 24  1  0
 23 24  1  0
 24 25  1  0
  7 26  1  0
  4 27  1  0
 26 27  1  0
M  END
