piperidine-amides-9330-covalent
     RDKit          3D

 19 19  0  0  0  0  0  0  0  0999 V2000
    7.1000   -3.2650   19.2000 C   0  0  0  0  0  0  0  0  0  0  0  0
    6.3400   -3.9930   20.2200 C   0  0  0  0  0  0  0  0  0  0  0  0
    5.2940   -4.5800   19.8950 O   0  0  0  0  0  0  0  0  0  0  0  0
    6.7910   -4.0790   21.5450 N   0  0  0  0  0  0  0  0  0  0  0  0
    7.7090   -3.1110   22.1050 C   0  0  0  0  0  0  0  0  0  0  0  0
    7.4050   -3.0640   23.5720 C   0  0  0  0  0  0  0  0  0  0  0  0
    6.0370   -3.5950   23.8630 C   0  0  0  0  0  0  0  0  0  0  0  0
    5.6550   -3.4430   25.2770 C   0  0  0  0  0  0  0  0  0  0  0  0
    4.7460   -2.6320   25.6250 O   0  0  0  0  0  0  0  0  0  0  0  0
    6.2840   -4.1960   26.2790 N   0  0  0  0  0  0  0  0  0  0  0  0
    5.6490   -4.3990   27.5970 C   0  0  0  0  0  0  0  0  0  0  0  0
    6.3850   -5.4870   28.2760 C   0  0  1  0  0  0  0  0  0  0  0  0
    7.5360   -5.9840   27.5180 C   0  0  0  0  0  0  0  0  0  0  0  0
    6.8760   -5.2970   29.4150 O   0  0  0  0  0  0  0  0  0  0  0  0
    5.4840   -6.6940   28.4060 C   0  0  0  0  0  0  0  0  0  0  0  0
    4.0110   -6.3750   28.2560 C   0  0  0  0  0  0  0  0  0  0  0  0
    5.7090   -7.3780   29.7670 C   0  0  0  0  0  0  0  0  0  0  0  0
    5.9600   -5.0560   23.4660 C   0  0  0  0  0  0  0  0  0  0  0  0
    6.5900   -5.3270   22.2440 C   0  0  0  0  0  0  0  0  0  0  0  0
  1  2  1  0
  2  3  2  0
  2  4  1  0
  4  5  1  0
  5  6  1  0
  6  7  1  0
  7  8  1  0
  8  9  2  0
  8 10  1  0
 10 11  1  0
 11 12  1  0
 12 13  1  6
 12 14  1  0
 12 15  1  0
 15 16  1  0
 15 17  1  0
  7 18  1  0
  4 19  1  0
 18 19  1  0
M  END
