piperidine-amides-14888-covalent
     RDKit          3D

 21 22  0  0  0  0  0  0  0  0999 V2000
    7.0020   -3.3050   19.3550 C   0  0  0  0  0  0  0  0  0  0  0  0
    6.3260   -4.1320   20.3590 C   0  0  0  0  0  0  0  0  0  0  0  0
    5.3620   -4.8180   19.9710 O   0  0  0  0  0  0  0  0  0  0  0  0
    6.7730   -4.1800   21.7150 N   0  0  0  0  0  0  0  0  0  0  0  0
    6.6730   -5.4320   22.4180 C   0  0  0  0  0  0  0  0  0  0  0  0
    6.1040   -5.1820   23.7830 C   0  0  0  0  0  0  0  0  0  0  0  0
    6.0600   -3.6850   23.9370 C   0  0  0  0  0  0  0  0  0  0  0  0
    5.5740   -3.2950   25.3200 C   0  0  0  0  0  0  0  0  0  0  0  0
    4.3600   -3.1350   25.4010 O   0  0  0  0  0  0  0  0  0  0  0  0
    6.4570   -3.1400   26.3940 N   0  0  0  0  0  0  0  0  0  0  0  0
    6.3400   -3.8530   27.6480 C   0  0  2  0  0  0  0  0  0  0  0  0
    5.8080   -5.1530   27.6150 C   0  0  0  0  0  0  0  0  0  0  0  0
    6.2130   -6.0010   28.6230 C   0  0  0  0  0  0  0  0  0  0  0  0
    5.5800   -2.9890   28.6020 C   0  0  0  0  0  0  0  0  0  0  0  0
    6.3880   -1.9080   29.2110 C   0  0  0  0  0  0  0  0  0  0  0  0
    5.8440   -0.8840   30.2350 C   0  0  0  0  0  0  0  0  0  0  0  0
    4.4040   -1.0010   30.6300 C   0  0  0  0  0  0  0  0  0  0  0  0
    3.5840   -2.1110   30.0000 C   0  0  0  0  0  0  0  0  0  0  0  0
    4.2640   -3.0640   28.9880 C   0  0  0  0  0  0  0  0  0  0  0  0
    7.4470   -3.1400   23.6810 C   0  0  0  0  0  0  0  0  0  0  0  0
    7.5660   -3.1060   22.2930 C   0  0  0  0  0  0  0  0  0  0  0  0
  1  2  1  0
  2  3  2  0
  2  4  1  0
  4  5  1  0
  5  6  1  0
  6  7  1  0
  7  8  1  0
  8  9  2  0
  8 10  1  0
 10 11  1  0
 11 12  1  6
 12 13  1  0
 11 14  1  0
 14 15  2  0
 15 16  1  0
 16 17  2  0
 17 18  1  0
 14 19  1  0
 18 19  2  0
  7 20  1  0
  4 21  1  0
 20 21  1  0
M  END
