piperidine-amides-26165-covalent
     RDKit          3D

 25 27  0  0  0  0  0  0  0  0999 V2000
    7.0780   -3.3700   19.3550 C   0  0  0  0  0  0  0  0  0  0  0  0
    6.4160   -4.2290   20.3360 C   0  0  0  0  0  0  0  0  0  0  0  0
    5.3870   -4.8390   19.9880 O   0  0  0  0  0  0  0  0  0  0  0  0
    6.9470   -4.4270   21.6250 N   0  0  0  0  0  0  0  0  0  0  0  0
    6.6430   -5.5930   22.4120 C   0  0  0  0  0  0  0  0  0  0  0  0
    5.8920   -5.0860   23.6250 C   0  0  0  0  0  0  0  0  0  0  0  0
    6.5760   -3.9620   24.3780 C   0  0  0  0  0  0  0  0  0  0  0  0
    5.7310   -3.4690   25.5000 C   0  0  0  0  0  0  0  0  0  0  0  0
    4.9440   -2.4990   25.3050 O   0  0  0  0  0  0  0  0  0  0  0  0
    5.7210   -4.0180   26.8080 N   0  0  0  0  0  0  0  0  0  0  0  0
    6.9160   -4.5480   27.4120 C   0  0  0  0  0  0  0  0  0  0  0  0
    6.3860   -5.4280   28.4050 C   0  0  0  0  0  0  0  0  0  0  0  0
    5.0750   -4.8650   28.7620 C   0  0  0  0  0  0  0  0  0  0  0  0
    4.6310   -3.8400   27.7090 C   0  0  2  0  0  0  0  0  0  0  0  0
    3.2250   -4.1570   27.2200 C   0  0  0  0  0  0  0  0  0  0  0  0
    2.3150   -3.0950   27.5940 C   0  0  0  0  0  0  0  0  0  0  0  0
    1.2490   -3.5700   27.0900 C   0  0  0  0  0  0  0  0  0  0  0  0
    1.6000   -4.8430   26.4750 N   0  0  0  0  0  0  0  0  0  0  0  0
    0.5770   -5.6250   25.8080 C   0  0  0  0  0  0  0  0  0  0  0  0
    0.0650   -6.5500   26.8920 C   0  0  0  0  0  0  0  0  0  0  0  0
   -0.8960   -7.6210   26.3660 C   0  0  0  0  0  0  0  0  0  0  0  0
   -0.6700   -5.8460   28.0390 C   0  0  0  0  0  0  0  0  0  0  0  0
    2.9110   -5.3220   26.5130 N   0  0  0  0  0  0  0  0  0  0  0  0
    6.8890   -2.8420   23.4250 C   0  0  0  0  0  0  0  0  0  0  0  0
    7.6040   -3.3150   22.2280 C   0  0  0  0  0  0  0  0  0  0  0  0
  1  2  1  0
  2  3  2  0
  2  4  1  0
  4  5  1  0
  5  6  1  0
  6  7  1  0
  7  8  1  0
  8  9  2  0
  8 10  1  0
 10 11  1  0
 11 12  1  0
 12 13  1  0
 10 14  1  0
 13 14  1  0
 14 15  1  6
 15 16  1  0
 16 17  2  0
 17 18  1  0
 18 19  1  0
 19 20  1  0
 20 21  1  0
 20 22  1  0
 15 23  2  0
 18 23  1  0
  7 24  1  0
  4 25  1  0
 24 25  1  0
M  END
