piperidine-amides-28875-covalent
     RDKit          3D

 25 27  0  0  0  0  0  0  0  0999 V2000
    7.0600   -3.3420   19.3200 C   0  0  0  0  0  0  0  0  0  0  0  0
    6.4090   -4.1900   20.3180 C   0  0  0  0  0  0  0  0  0  0  0  0
    5.3990   -4.8340   19.9780 O   0  0  0  0  0  0  0  0  0  0  0  0
    6.9610   -4.3010   21.6210 N   0  0  0  0  0  0  0  0  0  0  0  0
    6.7020   -5.5100   22.3620 C   0  0  0  0  0  0  0  0  0  0  0  0
    6.2190   -5.2040   23.7570 C   0  0  0  0  0  0  0  0  0  0  0  0
    6.1660   -3.7010   23.8930 C   0  0  0  0  0  0  0  0  0  0  0  0
    5.6390   -3.2440   25.2140 C   0  0  0  0  0  0  0  0  0  0  0  0
    4.8590   -2.3000   25.1720 O   0  0  0  0  0  0  0  0  0  0  0  0
    6.0140   -3.8920   26.3670 N   0  0  0  0  0  0  0  0  0  0  0  0
    6.4020   -3.1570   27.4790 C   0  0  0  0  0  0  0  0  0  0  0  0
    6.6140   -3.9350   28.6240 C   0  0  0  0  0  0  0  0  0  0  0  0
    5.6060   -4.7810   29.0280 C   0  0  0  0  0  0  0  0  0  0  0  0
    6.1430   -5.6440   29.9380 O   0  0  0  0  0  0  0  0  0  0  0  0
    4.3250   -4.2510   29.1630 C   0  0  0  0  0  0  0  0  0  0  0  0
    3.3580   -5.3730   28.9540 C   0  0  0  0  0  0  0  0  0  0  0  0
    1.8350   -5.0950   29.0440 C   0  0  0  0  0  0  0  0  0  0  0  0
    1.4190   -3.6960   29.3410 C   0  0  0  0  0  0  0  0  0  0  0  0
    2.4570   -2.6280   29.5370 C   0  0  0  0  0  0  0  0  0  0  0  0
    3.9660   -2.9240   29.4440 C   0  0  0  0  0  0  0  0  0  0  0  0
    5.1820   -1.6610   29.6760 Cl  0  0  0  0  0  0  0  0  0  0  0  0
    5.7860   -5.6040   27.7930 C   0  0  0  0  0  0  0  0  0  0  0  0
    5.1920   -4.9750   26.7400 C   0  0  0  0  0  0  0  0  0  0  0  0
    7.4740   -3.0710   23.6090 C   0  0  0  0  0  0  0  0  0  0  0  0
    7.7880   -3.2460   22.1670 C   0  0  0  0  0  0  0  0  0  0  0  0
  1  2  1  0
  2  3  2  0
  2  4  1  0
  4  5  1  0
  5  6  1  0
  6  7  1  0
  7  8  1  0
  8  9  2  0
  8 10  1  0
 10 11  1  0
 11 12  1  0
 12 13  1  0
 13 14  1  0
 13 15  1  0
 15 16  2  0
 16 17  1  0
 17 18  2  0
 18 19  1  0
 15 20  1  0
 19 20  2  0
 20 21  1  0
 13 22  1  0
 10 23  1  0
 22 23  1  0
  7 24  1  0
  4 25  1  0
 24 25  1  0
M  END
