piperidine-amides-6839-covalent
     RDKit          3D

 23 24  0  0  0  0  0  0  0  0999 V2000
    7.1240   -3.2290   19.1750 C   0  0  0  0  0  0  0  0  0  0  0  0
    6.3170   -4.0000   20.1420 C   0  0  0  0  0  0  0  0  0  0  0  0
    5.2070   -4.4650   19.8300 O   0  0  0  0  0  0  0  0  0  0  0  0
    6.8130   -4.2700   21.4110 N   0  0  0  0  0  0  0  0  0  0  0  0
    7.6240   -3.2740   22.0560 C   0  0  0  0  0  0  0  0  0  0  0  0
    6.7340   -2.6440   23.1130 C   0  0  0  0  0  0  0  0  0  0  0  0
    6.4030   -3.7800   24.0460 C   0  0  0  0  0  0  0  0  0  0  0  0
    5.7160   -3.2510   25.2240 C   0  0  0  0  0  0  0  0  0  0  0  0
    4.4700   -3.3330   25.3100 O   0  0  0  0  0  0  0  0  0  0  0  0
    6.5100   -2.6550   26.2180 N   0  0  0  0  0  0  0  0  0  0  0  0
    7.1780   -3.4990   27.1460 C   0  0  0  0  0  0  0  0  0  0  0  0
    7.9080   -4.6030   26.4020 C   0  0  1  0  0  0  0  0  0  0  0  0
    9.0280   -4.2170   25.7180 C   0  0  0  0  0  0  0  0  0  0  0  0
   10.2550   -4.4930   26.1530 C   0  0  0  0  0  0  0  0  0  0  0  0
   11.2450   -4.0210   25.3870 C   0  0  0  0  0  0  0  0  0  0  0  0
   11.1090   -3.3140   24.2260 C   0  0  0  0  0  0  0  0  0  0  0  0
    9.8150   -2.8850   23.5150 C   0  0  0  0  0  0  0  0  0  0  0  0
    8.8410   -3.5090   24.5540 C   0  0  0  0  0  0  0  0  0  0  0  0
    8.2300   -5.5710   27.2560 C   0  0  0  0  0  0  0  0  0  0  0  0
    9.1610   -5.0790   28.2220 C   0  0  0  0  0  0  0  0  0  0  0  0
    7.0610   -6.0290   27.8830 C   0  0  0  0  0  0  0  0  0  0  0  0
    5.4920   -4.7560   23.3130 C   0  0  0  0  0  0  0  0  0  0  0  0
    6.2840   -5.3710   22.1830 C   0  0  0  0  0  0  0  0  0  0  0  0
  1  2  1  0
  2  3  2  0
  2  4  1  0
  4  5  1  0
  5  6  1  0
  6  7  1  0
  7  8  1  0
  8  9  2  0
  8 10  1  0
 10 11  1  0
 12 11  1  1
 12 13  1  0
 13 14  2  0
 14 15  1  0
 15 16  2  0
 16 17  1  0
 13 18  1  0
 17 18  2  0
 12 19  1  0
 19 20  1  0
 19 21  1  0
  7 22  1  0
  4 23  1  0
 22 23  1  0
M  END
