piperidine-amides-15394-covalent
     RDKit          3D

 17 17  0  0  0  0  0  0  0  0999 V2000
    7.1260   -3.2850   19.2270 C   0  0  0  0  0  0  0  0  0  0  0  0
    6.3310   -4.0190   20.2190 C   0  0  0  0  0  0  0  0  0  0  0  0
    5.2590   -4.5680   19.8880 O   0  0  0  0  0  0  0  0  0  0  0  0
    6.7900   -4.1630   21.5290 N   0  0  0  0  0  0  0  0  0  0  0  0
    7.6520   -3.1680   22.1320 C   0  0  0  0  0  0  0  0  0  0  0  0
    6.8840   -2.6120   23.3280 C   0  0  0  0  0  0  0  0  0  0  0  0
    6.5450   -3.8150   24.1690 C   0  0  0  0  0  0  0  0  0  0  0  0
    5.7440   -3.3990   25.3390 C   0  0  0  0  0  0  0  0  0  0  0  0
    4.5690   -3.0260   25.1400 O   0  0  0  0  0  0  0  0  0  0  0  0
    6.2930   -3.4320   26.6470 N   0  0  0  0  0  0  0  0  0  0  0  0
    6.5070   -2.1740   27.3210 C   0  0  0  0  0  0  0  0  0  0  0  0
    6.1610   -4.6720   27.4130 C   0  0  1  0  0  0  0  0  0  0  0  0
    6.7970   -4.5270   28.6150 C   0  0  0  0  0  0  0  0  0  0  0  0
    4.7910   -5.1720   27.7480 C   0  0  0  0  0  0  0  0  0  0  0  0
    4.4220   -6.4330   27.3020 O   0  0  0  0  0  0  0  0  0  0  0  0
    5.7860   -4.8800   23.4310 C   0  0  0  0  0  0  0  0  0  0  0  0
    6.4660   -5.3230   22.3240 C   0  0  0  0  0  0  0  0  0  0  0  0
  1  2  1  0
  2  3  2  0
  2  4  1  0
  4  5  1  0
  5  6  1  0
  6  7  1  0
  7  8  1  0
  8  9  2  0
  8 10  1  0
 10 11  1  0
 10 12  1  0
 12 13  1  1
 12 14  1  0
 14 15  1  0
  7 16  1  0
  4 17  1  0
 16 17  1  0
M  END
