piperidine-amides-3396-covalent
     RDKit          3D

 21 22  0  0  0  0  0  0  0  0999 V2000
    7.0670   -3.3540   19.3280 C   0  0  0  0  0  0  0  0  0  0  0  0
    6.3650   -4.2000   20.2840 C   0  0  0  0  0  0  0  0  0  0  0  0
    5.3200   -4.7510   19.9510 O   0  0  0  0  0  0  0  0  0  0  0  0
    6.9080   -4.4630   21.5870 N   0  0  0  0  0  0  0  0  0  0  0  0
    6.3190   -5.5140   22.3630 C   0  0  0  0  0  0  0  0  0  0  0  0
    5.5830   -4.9050   23.5290 C   0  0  0  0  0  0  0  0  0  0  0  0
    6.5300   -3.9110   24.1860 C   0  0  0  0  0  0  0  0  0  0  0  0
    5.9710   -3.2460   25.3830 C   0  0  0  0  0  0  0  0  0  0  0  0
    4.7930   -3.3590   25.7830 O   0  0  0  0  0  0  0  0  0  0  0  0
    6.9140   -2.4380   26.0340 N   0  0  0  0  0  0  0  0  0  0  0  0
    6.5790   -1.3910   26.9560 C   0  0  0  0  0  0  0  0  0  0  0  0
    7.0370   -1.4340   28.3900 C   0  0  0  0  0  0  0  0  0  0  0  0
    6.7620   -0.4440   29.2990 C   0  0  0  0  0  0  0  0  0  0  0  0
    7.1100   -0.3240   30.6470 C   0  0  0  0  0  0  0  0  0  0  0  0
    5.9250    0.7510   28.7650 C   0  0  0  0  0  0  0  0  0  0  0  0
    5.4650    0.8230   27.4140 N   0  0  0  0  0  0  0  0  0  0  0  0
    5.7650   -0.2110   26.4750 C   0  0  0  0  0  0  0  0  0  0  0  0
    5.3770   -0.1730   25.2620 O   0  0  0  0  0  0  0  0  0  0  0  0
    4.1460   -0.8090   25.0730 C   0  0  0  0  0  0  0  0  0  0  0  0
    6.8510   -2.8150   23.1930 C   0  0  0  0  0  0  0  0  0  0  0  0
    7.6450   -3.3820   22.2190 C   0  0  0  0  0  0  0  0  0  0  0  0
  1  2  1  0
  2  3  2  0
  2  4  1  0
  4  5  1  0
  5  6  1  0
  6  7  1  0
  7  8  1  0
  8  9  2  0
  8 10  1  0
 10 11  1  0
 11 12  2  0
 12 13  1  0
 13 14  1  0
 13 15  2  0
 15 16  1  0
 11 17  1  0
 16 17  2  0
 17 18  1  0
 18 19  1  0
  7 20  1  0
  4 21  1  0
 20 21  1  0
M  END
