piperidine-amides-7249-covalent
     RDKit          3D

 21 22  0  0  0  0  0  0  0  0999 V2000
    7.1050   -3.2680   19.2020 C   0  0  0  0  0  0  0  0  0  0  0  0
    6.3510   -4.0160   20.2150 C   0  0  0  0  0  0  0  0  0  0  0  0
    5.2460   -4.4940   19.8580 O   0  0  0  0  0  0  0  0  0  0  0  0
    6.8800   -4.2200   21.4840 N   0  0  0  0  0  0  0  0  0  0  0  0
    7.6920   -3.2170   22.1340 C   0  0  0  0  0  0  0  0  0  0  0  0
    6.9790   -2.7590   23.3680 C   0  0  0  0  0  0  0  0  0  0  0  0
    6.5600   -3.9220   24.2230 C   0  0  0  0  0  0  0  0  0  0  0  0
    5.8050   -3.4630   25.4080 C   0  0  0  0  0  0  0  0  0  0  0  0
    4.5630   -3.6020   25.4030 O   0  0  0  0  0  0  0  0  0  0  0  0
    6.4090   -2.8690   26.5320 N   0  0  0  0  0  0  0  0  0  0  0  0
    6.6480   -1.4510   26.5510 C   0  0  0  0  0  0  0  0  0  0  0  0
    5.3690   -0.6550   26.3090 C   0  0  0  0  0  0  0  0  0  0  0  0
    4.1440   -1.0220   26.8350 C   0  0  0  0  0  0  0  0  0  0  0  0
    2.9760   -0.3160   26.6260 C   0  0  0  0  0  0  0  0  0  0  0  0
    1.4400   -0.7960   27.3000 Cl  0  0  0  0  0  0  0  0  0  0  0  0
    3.0230    0.8250   25.8470 C   0  0  0  0  0  0  0  0  0  0  0  0
    4.2350    1.2030   25.3180 C   0  0  0  0  0  0  0  0  0  0  0  0
    5.3900    0.4920   25.5350 C   0  0  0  0  0  0  0  0  0  0  0  0
    6.5900    0.9350   24.9660 O   0  0  0  0  0  0  0  0  0  0  0  0
    5.6800   -4.8990   23.4400 C   0  0  0  0  0  0  0  0  0  0  0  0
    6.4690   -5.3770   22.2310 C   0  0  0  0  0  0  0  0  0  0  0  0
  1  2  1  0
  2  3  2  0
  2  4  1  0
  4  5  1  0
  5  6  1  0
  6  7  1  0
  7  8  1  0
  8  9  2  0
  8 10  1  0
 10 11  1  0
 11 12  1  0
 12 13  2  0
 13 14  1  0
 14 15  1  0
 14 16  2  0
 16 17  1  0
 12 18  1  0
 17 18  2  0
 18 19  1  0
  7 20  1  0
  4 21  1  0
 20 21  1  0
M  END
