piperidine-amides-1628-covalent
     RDKit          3D

 20 20  0  0  0  0  0  0  0  0999 V2000
    7.1070   -3.2530   19.1960 C   0  0  0  0  0  0  0  0  0  0  0  0
    6.3280   -4.0080   20.2180 C   0  0  0  0  0  0  0  0  0  0  0  0
    5.2710   -4.5650   19.8840 O   0  0  0  0  0  0  0  0  0  0  0  0
    6.8300   -4.1160   21.5310 N   0  0  0  0  0  0  0  0  0  0  0  0
    7.7040   -3.1010   22.0780 C   0  0  0  0  0  0  0  0  0  0  0  0
    7.4030   -3.0080   23.5700 C   0  0  0  0  0  0  0  0  0  0  0  0
    6.0350   -3.5710   23.7330 C   0  0  0  0  0  0  0  0  0  0  0  0
    5.3940   -3.1880   25.0060 C   0  0  0  0  0  0  0  0  0  0  0  0
    4.2810   -2.6620   24.9410 O   0  0  0  0  0  0  0  0  0  0  0  0
    6.0440   -3.4290   26.2040 N   0  0  0  0  0  0  0  0  0  0  0  0
    5.4680   -3.9680   27.3790 C   0  0  0  0  0  0  0  0  0  0  0  0
    5.5750   -5.2880   27.6630 C   0  0  2  0  0  0  0  0  0  0  0  0
    4.3830   -6.0110   27.5490 C   0  0  0  0  0  0  0  0  0  0  0  0
    6.0850   -5.4990   29.0660 C   0  0  0  0  0  0  0  0  0  0  0  0
    4.9540   -5.6050   30.0240 C   0  0  0  0  0  0  0  0  0  0  0  0
    6.4350   -5.9050   26.8200 C   0  0  0  0  0  0  0  0  0  0  0  0
    7.6550   -5.3570   27.1210 O   0  0  0  0  0  0  0  0  0  0  0  0
    8.6290   -6.1370   27.7410 C   0  0  0  0  0  0  0  0  0  0  0  0
    6.0910   -5.0900   23.5890 C   0  0  0  0  0  0  0  0  0  0  0  0
    6.5460   -5.3670   22.2020 C   0  0  0  0  0  0  0  0  0  0  0  0
  1  2  1  0
  2  3  2  0
  2  4  1  0
  4  5  1  0
  5  6  1  0
  6  7  1  0
  7  8  1  0
  8  9  2  0
  8 10  1  0
 10 11  1  0
 12 11  1  0
 12 13  1  1
 12 14  1  0
 14 15  1  0
 12 16  1  0
 16 17  1  0
 17 18  1  0
  7 19  1  0
  4 20  1  0
 19 20  1  0
M  END
