piperidine-amides-35409-covalent
     RDKit          3D

 29 31  0  0  0  0  0  0  0  0999 V2000
    7.0110   -3.2570   19.2350 C   0  0  0  0  0  0  0  0  0  0  0  0
    6.2670   -4.0770   20.2270 C   0  0  0  0  0  0  0  0  0  0  0  0
    5.2050   -4.5600   19.8680 O   0  0  0  0  0  0  0  0  0  0  0  0
    6.7970   -4.3220   21.4850 N   0  0  0  0  0  0  0  0  0  0  0  0
    7.4310   -3.2880   22.2390 C   0  0  0  0  0  0  0  0  0  0  0  0
    6.4550   -2.8520   23.2890 C   0  0  0  0  0  0  0  0  0  0  0  0
    6.1900   -4.0500   24.2040 C   0  0  0  0  0  0  0  0  0  0  0  0
    5.4610   -3.5780   25.4100 C   0  0  0  0  0  0  0  0  0  0  0  0
    4.2590   -3.2890   25.3500 O   0  0  0  0  0  0  0  0  0  0  0  0
    6.1700   -3.4710   26.6200 N   0  0  0  0  0  0  0  0  0  0  0  0
    5.6260   -2.6180   27.6470 C   0  0  0  0  0  0  0  0  0  0  0  0
    7.5510   -3.4520   26.4290 C   0  0  0  0  0  0  0  0  0  0  0  0
    7.7720   -2.3890   25.5900 C   0  0  0  0  0  0  0  0  0  0  0  0
    7.0490   -1.2870   25.8280 C   0  0  0  0  0  0  0  0  0  0  0  0
    7.1570   -0.2050   25.0610 C   0  0  0  0  0  0  0  0  0  0  0  0
    8.0530   -0.0600   23.8770 C   0  0  0  0  0  0  0  0  0  0  0  0
    8.2130    1.4750   22.7500 Br  0  0  0  0  0  0  0  0  0  0  0  0
    8.8320   -1.3460   23.6980 C   0  0  0  0  0  0  0  0  0  0  0  0
    8.7770   -2.6450   24.5330 C   0  0  0  0  0  0  0  0  0  0  0  0
    9.5620   -3.6920   24.2120 O   0  0  0  0  0  0  0  0  0  0  0  0
   10.8790   -3.3820   24.4190 C   0  0  0  0  0  0  0  0  0  0  0  0
   11.5980   -3.8640   25.6100 C   0  0  0  0  0  0  0  0  0  0  0  0
   13.0410   -3.4770   25.7580 C   0  0  0  0  0  0  0  0  0  0  0  0
   13.6420   -2.6270   24.7130 C   0  0  0  0  0  0  0  0  0  0  0  0
   12.7870   -2.1970   23.5420 C   0  0  0  0  0  0  0  0  0  0  0  0
   13.3520   -1.1960   22.2340 Cl  0  0  0  0  0  0  0  0  0  0  0  0
   11.4840   -2.6040   23.4830 C   0  0  0  0  0  0  0  0  0  0  0  0
    5.5090   -5.1010   23.3850 C   0  0  0  0  0  0  0  0  0  0  0  0
    6.4190   -5.5390   22.2200 C   0  0  0  0  0  0  0  0  0  0  0  0
  1  2  1  0
  2  3  2  0
  2  4  1  0
  4  5  1  0
  5  6  1  0
  6  7  1  0
  7  8  1  0
  8  9  2  0
  8 10  1  0
 10 11  1  0
 10 12  1  0
 12 13  1  0
 13 14  2  0
 14 15  1  0
 15 16  2  0
 16 17  1  0
 16 18  1  0
 13 19  1  0
 18 19  2  0
 19 20  1  0
 20 21  1  0
 21 22  2  0
 22 23  1  0
 23 24  2  0
 24 25  1  0
 25 26  1  0
 21 27  1  0
 25 27  2  0
  7 28  1  0
  4 29  1  0
 28 29  1  0
M  END
