piperidine-amides-29473-covalent
     RDKit          3D

 27 29  0  0  0  0  0  0  0  0999 V2000
    7.0290   -3.3590   19.3780 C   0  0  0  0  0  0  0  0  0  0  0  0
    6.4020   -4.2410   20.3610 C   0  0  0  0  0  0  0  0  0  0  0  0
    5.3950   -4.8760   19.9920 O   0  0  0  0  0  0  0  0  0  0  0  0
    6.9470   -4.4100   21.6720 N   0  0  0  0  0  0  0  0  0  0  0  0
    7.6230   -3.3150   22.2960 C   0  0  0  0  0  0  0  0  0  0  0  0
    6.7090   -2.6840   23.3110 C   0  0  0  0  0  0  0  0  0  0  0  0
    6.1990   -3.7460   24.2830 C   0  0  0  0  0  0  0  0  0  0  0  0
    5.3000   -3.0720   25.3110 C   0  0  0  0  0  0  0  0  0  0  0  0
    4.2110   -2.7100   24.8840 O   0  0  0  0  0  0  0  0  0  0  0  0
    5.7110   -2.8970   26.6490 N   0  0  0  0  0  0  0  0  0  0  0  0
    5.9690   -1.6060   27.2060 C   0  0  0  0  0  0  0  0  0  0  0  0
    5.6220   -0.3880   26.6250 C   0  0  0  0  0  0  0  0  0  0  0  0
    5.8960    0.8130   27.2480 C   0  0  0  0  0  0  0  0  0  0  0  0
    6.5340    0.9090   28.4850 C   0  0  0  0  0  0  0  0  0  0  0  0
    6.8940   -0.4280   29.0670 C   0  0  0  0  0  0  0  0  0  0  0  0
    6.6090   -1.5710   28.4280 N   0  0  0  0  0  0  0  0  0  0  0  0
    5.9000   -4.0380   27.4750 C   0  0  1  0  0  0  0  0  0  0  0  0
    4.9210   -5.1220   27.2800 C   0  0  0  0  0  0  0  0  0  0  0  0
    7.1680   -4.5750   27.1030 C   0  0  0  0  0  0  0  0  0  0  0  0
    7.7930   -3.7620   25.9480 C   0  0  0  0  0  0  0  0  0  0  0  0
    8.9860   -4.1500   25.4660 C   0  0  0  0  0  0  0  0  0  0  0  0
    9.6810   -5.2090   25.9400 C   0  0  0  0  0  0  0  0  0  0  0  0
   10.8410   -5.5700   25.4900 F   0  0  0  0  0  0  0  0  0  0  0  0
    9.0850   -5.9610   27.0240 C   0  0  0  0  0  0  0  0  0  0  0  0
    7.8090   -5.6380   27.6130 C   0  0  0  0  0  0  0  0  0  0  0  0
    5.4340   -4.8090   23.4850 C   0  0  0  0  0  0  0  0  0  0  0  0
    6.3970   -5.4650   22.4800 C   0  0  0  0  0  0  0  0  0  0  0  0
  1  2  1  0
  2  3  2  0
  2  4  1  0
  4  5  1  0
  5  6  1  0
  6  7  1  0
  7  8  1  0
  8  9  2  0
  8 10  1  0
 10 11  1  0
 11 12  2  0
 12 13  1  0
 13 14  2  0
 14 15  1  0
 11 16  1  0
 15 16  2  0
 10 17  1  0
 17 18  1  6
 17 19  1  0
 19 20  2  0
 20 21  1  0
 21 22  2  0
 22 23  1  0
 22 24  1  0
 19 25  1  0
 24 25  2  0
  7 26  1  0
  4 27  1  0
 26 27  1  0
M  END
