piperidine-amides-2532-covalent
     RDKit          3D

 26 28  0  0  0  0  0  0  0  0999 V2000
    7.0940   -3.2840   19.2160 C   0  0  0  0  0  0  0  0  0  0  0  0
    6.3170   -4.0270   20.2430 C   0  0  0  0  0  0  0  0  0  0  0  0
    5.2690   -4.5530   19.8790 O   0  0  0  0  0  0  0  0  0  0  0  0
    6.7990   -4.1390   21.5440 N   0  0  0  0  0  0  0  0  0  0  0  0
    6.6550   -5.3450   22.3150 C   0  0  0  0  0  0  0  0  0  0  0  0
    5.9350   -5.0330   23.5960 C   0  0  0  0  0  0  0  0  0  0  0  0
    6.2120   -3.5820   24.0040 C   0  0  0  0  0  0  0  0  0  0  0  0
    6.1310   -3.5250   25.4720 C   0  0  0  0  0  0  0  0  0  0  0  0
    5.0370   -3.2890   26.0150 O   0  0  0  0  0  0  0  0  0  0  0  0
    7.3070   -3.7370   26.2320 N   0  0  0  0  0  0  0  0  0  0  0  0
    7.3170   -3.4540   27.6480 C   0  0  0  0  0  0  0  0  0  0  0  0
    7.6150   -1.9730   27.7960 C   0  0  0  0  0  0  0  0  0  0  0  0
    8.3310   -1.3710   28.7310 C   0  0  0  0  0  0  0  0  0  0  0  0
    8.3990   -0.0110   28.5670 N   0  0  0  0  0  0  0  0  0  0  0  0
    9.1020    0.9260   29.4110 C   0  0  0  0  0  0  0  0  0  0  0  0
    9.8650    0.5330   30.4780 C   0  0  0  0  0  0  0  0  0  0  0  0
   10.6600    1.4240   31.4540 C   0  0  0  0  0  0  0  0  0  0  0  0
   10.5480    2.9090   31.1510 C   0  0  0  0  0  0  0  0  0  0  0  0
   11.1340    3.9220   31.8440 O   0  0  0  0  0  0  0  0  0  0  0  0
   11.2420    5.1140   31.1300 C   0  0  0  0  0  0  0  0  0  0  0  0
    9.7170    3.3490   29.9820 C   0  0  0  0  0  0  0  0  0  0  0  0
    9.0000    2.4140   29.1160 C   0  0  0  0  0  0  0  0  0  0  0  0
    7.6820    0.2260   27.4670 N   0  0  0  0  0  0  0  0  0  0  0  0
    7.2000   -0.9690   26.9910 N   0  0  0  0  0  0  0  0  0  0  0  0
    7.4690   -2.9770   23.5050 C   0  0  0  0  0  0  0  0  0  0  0  0
    7.7110   -3.1300   22.0530 C   0  0  0  0  0  0  0  0  0  0  0  0
  1  2  1  0
  2  3  2  0
  2  4  1  0
  4  5  1  0
  5  6  1  0
  6  7  1  0
  7  8  1  0
  8  9  2  0
  8 10  1  0
 10 11  1  0
 11 12  1  0
 12 13  2  0
 13 14  1  0
 14 15  1  0
 15 16  2  0
 16 17  1  0
 17 18  2  0
 18 19  1  0
 19 20  1  0
 18 21  1  0
 15 22  1  0
 21 22  2  0
 14 23  1  0
 12 24  1  0
 23 24  2  0
  7 25  1  0
  4 26  1  0
 25 26  1  0
M  END
