piperidine-amides-4326-covalent
     RDKit          3D

 26 28  0  0  0  0  0  0  0  0999 V2000
    7.1350   -3.2640   19.1770 C   0  0  0  0  0  0  0  0  0  0  0  0
    6.3680   -4.0030   20.1970 C   0  0  0  0  0  0  0  0  0  0  0  0
    5.2710   -4.4980   19.8560 O   0  0  0  0  0  0  0  0  0  0  0  0
    6.8840   -4.1920   21.4970 N   0  0  0  0  0  0  0  0  0  0  0  0
    7.6400   -3.1320   22.0540 C   0  0  0  0  0  0  0  0  0  0  0  0
    7.2780   -2.7790   23.4150 C   0  0  0  0  0  0  0  0  0  0  0  0
    6.4450   -3.7770   24.1160 C   0  0  0  0  0  0  0  0  0  0  0  0
    5.6810   -3.0950   25.2120 C   0  0  0  0  0  0  0  0  0  0  0  0
    4.4470   -2.9430   25.1150 O   0  0  0  0  0  0  0  0  0  0  0  0
    6.3560   -2.6350   26.3520 N   0  0  0  0  0  0  0  0  0  0  0  0
    7.1620   -3.4500   27.1530 C   0  0  2  0  0  0  0  0  0  0  0  0
    8.1480   -4.2580   26.4490 C   0  0  0  0  0  0  0  0  0  0  0  0
    8.7560   -3.7380   25.4640 O   0  0  0  0  0  0  0  0  0  0  0  0
    8.4830   -5.5240   26.7760 O   0  0  0  0  0  0  0  0  0  0  0  0
    8.8370   -5.7550   28.0980 C   0  0  0  0  0  0  0  0  0  0  0  0
    6.2740   -4.3420   27.9870 C   0  0  0  0  0  0  0  0  0  0  0  0
    6.3670   -5.8840   27.7340 C   0  0  0  0  0  0  0  0  0  0  0  0
    5.4510   -6.7840   28.5840 C   0  0  0  0  0  0  0  0  0  0  0  0
    4.5700   -5.9930   29.5630 C   0  0  0  0  0  0  0  0  0  0  0  0
    4.5280   -4.5690   29.7450 C   0  0  0  0  0  0  0  0  0  0  0  0
    5.4370   -3.7680   28.9000 C   0  0  0  0  0  0  0  0  0  0  0  0
    3.5750   -4.0980   30.7540 C   0  0  0  0  0  0  0  0  0  0  0  0
    3.0500   -5.4170   31.2340 C   0  0  0  0  0  0  0  0  0  0  0  0
    3.6290   -6.5090   30.4720 O   0  0  0  0  0  0  0  0  0  0  0  0
    5.5320   -4.5730   23.2330 C   0  0  0  0  0  0  0  0  0  0  0  0
    6.3620   -5.2290   22.3370 C   0  0  0  0  0  0  0  0  0  0  0  0
  1  2  1  0
  2  3  2  0
  2  4  1  0
  4  5  1  0
  5  6  1  0
  6  7  1  0
  7  8  1  0
  8  9  2  0
  8 10  1  0
 11 10  1  6
 11 12  1  0
 12 13  2  0
 12 14  1  0
 14 15  1  0
 11 16  1  0
 16 17  2  0
 17 18  1  0
 18 19  2  0
 19 20  1  0
 16 21  1  0
 20 21  2  0
 20 22  1  0
 22 23  1  0
 19 24  1  0
 23 24  1  0
  7 25  1  0
  4 26  1  0
 25 26  1  0
M  END
