piperidine-amides-31865-covalent
     RDKit          3D

 29 32  0  0  0  0  0  0  0  0999 V2000
    6.9380   -3.4500   19.3900 C   0  0  0  0  0  0  0  0  0  0  0  0
    6.2990   -4.2910   20.3810 C   0  0  0  0  0  0  0  0  0  0  0  0
    5.3250   -4.9930   19.9950 O   0  0  0  0  0  0  0  0  0  0  0  0
    6.7330   -4.4000   21.7150 N   0  0  0  0  0  0  0  0  0  0  0  0
    6.4700   -5.6520   22.4670 C   0  0  0  0  0  0  0  0  0  0  0  0
    5.3050   -5.2160   23.4610 C   0  0  0  0  0  0  0  0  0  0  0  0
    5.8340   -4.0610   24.2880 C   0  0  0  0  0  0  0  0  0  0  0  0
    4.8830   -3.6880   25.5610 C   0  0  0  0  0  0  0  0  0  0  0  0
    3.7080   -3.6480   25.2490 O   0  0  0  0  0  0  0  0  0  0  0  0
    5.6570   -3.5270   26.5570 N   0  0  0  0  0  0  0  0  0  0  0  0
    6.8750   -3.4200   27.0390 C   0  0  2  0  0  0  0  0  0  0  0  0
    7.6790   -3.3530   26.0610 C   0  0  0  0  0  0  0  0  0  0  0  0
    8.5740   -4.3320   26.0570 C   0  0  0  0  0  0  0  0  0  0  0  0
    9.5210   -4.4860   25.0190 C   0  0  0  0  0  0  0  0  0  0  0  0
    9.4090   -3.4150   23.8300 C   0  0  0  0  0  0  0  0  0  0  0  0
    8.4220   -2.4920   24.0860 C   0  0  0  0  0  0  0  0  0  0  0  0
    7.5980   -2.4560   25.1470 C   0  0  0  0  0  0  0  0  0  0  0  0
    7.3050   -4.7100   27.6740 C   0  0  0  0  0  0  0  0  0  0  0  0
    6.4140   -4.3500   28.8820 C   0  0  0  0  0  0  0  0  0  0  0  0
    5.1030   -4.1510   28.6270 C   0  0  0  0  0  0  0  0  0  0  0  0
    4.8520   -3.1710   27.7190 C   0  0  1  0  0  0  0  0  0  0  0  0
    5.1490   -1.8920   28.0880 C   0  0  0  0  0  0  0  0  0  0  0  0
    5.3500   -0.9000   27.1110 C   0  0  0  0  0  0  0  0  0  0  0  0
    5.6720    0.4870   27.2330 C   0  0  0  0  0  0  0  0  0  0  0  0
    5.7900    0.8200   28.6940 C   0  0  0  0  0  0  0  0  0  0  0  0
    5.5990   -0.1380   29.7980 C   0  0  0  0  0  0  0  0  0  0  0  0
    5.2640   -1.5470   29.4350 C   0  0  0  0  0  0  0  0  0  0  0  0
    6.1480   -2.8710   23.3700 C   0  0  0  0  0  0  0  0  0  0  0  0
    7.2520   -3.2720   22.4170 C   0  0  0  0  0  0  0  0  0  0  0  0
  1  2  1  0
  2  3  2  0
  2  4  1  0
  4  5  1  0
  5  6  1  0
  6  7  1  0
  7  8  1  0
  8  9  2  0
  8 10  1  0
 10 11  1  0
 11 12  1  6
 12 13  2  0
 13 14  1  0
 14 15  2  0
 15 16  1  0
 12 17  1  0
 16 17  2  0
 11 18  1  0
 18 19  1  0
 19 20  1  0
 10 21  1  0
 20 21  1  0
 21 22  1  1
 22 23  2  0
 23 24  1  0
 24 25  2  0
 25 26  1  0
 22 27  1  0
 26 27  2  0
  7 28  1  0
  4 29  1  0
 28 29  1  0
M  END
