piperidine-amides-1544-covalent
     RDKit          3D

 21 22  0  0  0  0  0  0  0  0999 V2000
    7.1150   -3.2770   19.2470 C   0  0  0  0  0  0  0  0  0  0  0  0
    6.3610   -4.0830   20.2490 C   0  0  0  0  0  0  0  0  0  0  0  0
    5.2950   -4.6140   19.9070 O   0  0  0  0  0  0  0  0  0  0  0  0
    6.8920   -4.2730   21.5430 N   0  0  0  0  0  0  0  0  0  0  0  0
    6.5820   -5.4280   22.3410 C   0  0  0  0  0  0  0  0  0  0  0  0
    5.7190   -4.9330   23.5070 C   0  0  0  0  0  0  0  0  0  0  0  0
    6.4800   -3.8530   24.2040 C   0  0  0  0  0  0  0  0  0  0  0  0
    5.7530   -3.3310   25.3880 C   0  0  0  0  0  0  0  0  0  0  0  0
    4.5630   -3.0550   25.2020 O   0  0  0  0  0  0  0  0  0  0  0  0
    6.3970   -3.1740   26.6220 N   0  0  0  0  0  0  0  0  0  0  0  0
    6.2330   -3.9690   27.7950 C   0  0  2  0  0  0  0  0  0  0  0  0
    6.0820   -5.3420   27.8030 C   0  0  0  0  0  0  0  0  0  0  0  0
    5.0290   -3.4290   28.5600 C   0  0  0  0  0  0  0  0  0  0  0  0
    3.7860   -3.9460   28.2580 C   0  0  0  0  0  0  0  0  0  0  0  0
    2.5490   -3.5340   28.9040 C   0  0  0  0  0  0  0  0  0  0  0  0
    2.6230   -2.4800   29.9640 C   0  0  0  0  0  0  0  0  0  0  0  0
    1.2380   -2.1680   30.5360 C   0  0  0  0  0  0  0  0  0  0  0  0
    3.8490   -1.9090   30.3210 C   0  0  0  0  0  0  0  0  0  0  0  0
    4.9440   -2.3910   29.6330 N   0  0  0  0  0  0  0  0  0  0  0  0
    6.8500   -2.7040   23.3380 C   0  0  0  0  0  0  0  0  0  0  0  0
    7.6530   -3.2060   22.1560 C   0  0  0  0  0  0  0  0  0  0  0  0
  1  2  1  0
  2  3  2  0
  2  4  1  0
  4  5  1  0
  5  6  1  0
  6  7  1  0
  7  8  1  0
  8  9  2  0
  8 10  1  0
 10 11  1  0
 11 12  1  6
 11 13  1  0
 13 14  2  0
 14 15  1  0
 15 16  2  0
 16 17  1  0
 16 18  1  0
 13 19  1  0
 18 19  2  0
  7 20  1  0
  4 21  1  0
 20 21  1  0
M  END
