piperidine-amides-31299-covalent
     RDKit          3D

 28 31  0  0  0  0  0  0  0  0999 V2000
    7.0800   -3.3580   19.4580 C   0  0  0  0  0  0  0  0  0  0  0  0
    6.4000   -4.2090   20.4120 C   0  0  0  0  0  0  0  0  0  0  0  0
    5.4380   -4.9330   20.0010 O   0  0  0  0  0  0  0  0  0  0  0  0
    6.7980   -4.2750   21.7700 N   0  0  0  0  0  0  0  0  0  0  0  0
    6.6600   -5.6010   22.4420 C   0  0  0  0  0  0  0  0  0  0  0  0
    6.0700   -5.2410   23.8790 C   0  0  0  0  0  0  0  0  0  0  0  0
    6.2700   -3.7580   24.0460 C   0  0  0  0  0  0  0  0  0  0  0  0
    5.5620   -3.0520   25.2990 C   0  0  0  0  0  0  0  0  0  0  0  0
    5.2870   -1.9100   24.9960 O   0  0  0  0  0  0  0  0  0  0  0  0
    5.4320   -3.8300   26.3040 N   0  0  0  0  0  0  0  0  0  0  0  0
    4.9050   -4.7900   27.0750 C   0  0  0  0  0  0  0  0  0  0  0  0
    4.4790   -4.8920   28.3450 C   0  0  0  0  0  0  0  0  0  0  0  0
    5.5550   -4.5900   29.1290 C   0  0  0  0  0  0  0  0  0  0  0  0
    6.7530   -4.5500   28.3390 C   0  0  0  0  0  0  0  0  0  0  0  0
    6.3290   -3.3820   27.3570 C   0  0  2  0  0  0  0  0  0  0  0  0
    5.7920   -2.5590   28.3690 C   0  0  0  0  0  0  0  0  0  0  0  0
    4.4870   -2.1270   28.3890 N   0  0  0  0  0  0  0  0  0  0  0  0
    4.4500   -1.3180   29.5800 C   0  0  0  0  0  0  0  0  0  0  0  0
    3.1780   -0.5930   30.0440 C   0  0  0  0  0  0  0  0  0  0  0  0
    2.0710   -0.4280   29.1490 N   0  0  0  0  0  0  0  0  0  0  0  0
    0.9810    0.2710   29.7510 C   0  0  0  0  0  0  0  0  0  0  0  0
    1.0030    0.7220   31.0250 C   0  0  0  0  0  0  0  0  0  0  0  0
    2.0820    0.5390   31.8350 C   0  0  0  0  0  0  0  0  0  0  0  0
    3.1490   -0.1150   31.3260 N   0  0  0  0  0  0  0  0  0  0  0  0
    5.7550   -1.3860   30.1030 N   0  0  0  0  0  0  0  0  0  0  0  0
    6.5250   -2.1730   29.2980 O   0  0  0  0  0  0  0  0  0  0  0  0
    7.6480   -3.2880   23.6700 C   0  0  0  0  0  0  0  0  0  0  0  0
    7.7080   -3.2760   22.3050 C   0  0  0  0  0  0  0  0  0  0  0  0
  1  2  1  0
  2  3  2  0
  2  4  1  0
  4  5  1  0
  5  6  1  0
  6  7  1  0
  7  8  1  0
  8  9  2  0
  8 10  1  0
 10 11  1  0
 11 12  1  0
 12 13  1  0
 13 14  1  0
 10 15  1  0
 14 15  1  0
 15 16  1  1
 16 17  2  0
 17 18  1  0
 18 19  1  0
 19 20  2  0
 20 21  1  0
 21 22  2  0
 22 23  1  0
 19 24  1  0
 23 24  2  0
 18 25  2  0
 16 26  1  0
 25 26  1  0
  7 27  1  0
  4 28  1  0
 27 28  1  0
M  END
