piperidine-amides-11308-covalent
     RDKit          3D

 20 21  0  0  0  0  0  0  0  0999 V2000
    7.0690   -3.3410   19.3210 C   0  0  0  0  0  0  0  0  0  0  0  0
    6.4030   -4.1610   20.3370 C   0  0  0  0  0  0  0  0  0  0  0  0
    5.4340   -4.8640   19.9940 O   0  0  0  0  0  0  0  0  0  0  0  0
    6.8730   -4.1900   21.6650 N   0  0  0  0  0  0  0  0  0  0  0  0
    7.7900   -3.1700   22.1360 C   0  0  0  0  0  0  0  0  0  0  0  0
    7.5840   -3.0830   23.6140 C   0  0  0  0  0  0  0  0  0  0  0  0
    6.2230   -3.5750   23.9700 C   0  0  0  0  0  0  0  0  0  0  0  0
    5.8240   -3.2510   25.3620 C   0  0  0  0  0  0  0  0  0  0  0  0
    4.7160   -3.6670   25.8150 O   0  0  0  0  0  0  0  0  0  0  0  0
    6.6220   -2.4610   26.2310 N   0  0  0  0  0  0  0  0  0  0  0  0
    5.9780   -1.5610   27.2180 C   0  0  1  0  0  0  0  0  0  0  0  0
    6.8900   -1.2560   28.3270 C   0  0  0  0  0  0  0  0  0  0  0  0
    7.4800   -2.0880   29.0560 O   0  0  0  0  0  0  0  0  0  0  0  0
    7.0210    0.0650   28.5230 O   0  0  0  0  0  0  0  0  0  0  0  0
    6.1590    0.7260   27.6240 C   0  0  0  0  0  0  0  0  0  0  0  0
    5.4450   -0.2240   26.6460 C   0  0  1  0  0  0  0  0  0  0  0  0
    5.9590   -0.1590   25.2250 C   0  0  0  0  0  0  0  0  0  0  0  0
    5.9270    1.0720   24.5990 O   0  0  0  0  0  0  0  0  0  0  0  0
    6.1450   -5.0470   23.7160 C   0  0  0  0  0  0  0  0  0  0  0  0
    6.5540   -5.3650   22.4330 C   0  0  0  0  0  0  0  0  0  0  0  0
  1  2  1  0
  2  3  2  0
  2  4  1  0
  4  5  1  0
  5  6  1  0
  6  7  1  0
  7  8  1  0
  8  9  2  0
  8 10  1  0
 11 10  1  6
 11 12  1  0
 12 13  2  0
 12 14  1  0
 14 15  1  0
 11 16  1  0
 15 16  1  0
 16 17  1  6
 17 18  1  0
  7 19  1  0
  4 20  1  0
 19 20  1  0
M  END
