piperidine-amides-30198-covalent
     RDKit          3D

 27 29  0  0  0  0  0  0  0  0999 V2000
    7.0160   -3.3670   19.3730 C   0  0  0  0  0  0  0  0  0  0  0  0
    6.3450   -4.2220   20.3500 C   0  0  0  0  0  0  0  0  0  0  0  0
    5.3770   -4.8890   19.9900 O   0  0  0  0  0  0  0  0  0  0  0  0
    6.8210   -4.3350   21.7070 N   0  0  0  0  0  0  0  0  0  0  0  0
    7.6900   -3.3070   22.2600 C   0  0  0  0  0  0  0  0  0  0  0  0
    7.4180   -3.0790   23.7220 C   0  0  0  0  0  0  0  0  0  0  0  0
    6.1160   -3.7910   24.0220 C   0  0  0  0  0  0  0  0  0  0  0  0
    5.5460   -3.4340   25.3680 C   0  0  0  0  0  0  0  0  0  0  0  0
    4.5990   -2.6330   25.4470 O   0  0  0  0  0  0  0  0  0  0  0  0
    6.0200   -3.9730   26.6020 N   0  0  0  0  0  0  0  0  0  0  0  0
    5.8410   -3.1280   27.7620 C   0  0  0  0  0  0  0  0  0  0  0  0
    5.6030   -4.0180   28.9550 C   0  0  0  0  0  0  0  0  0  0  0  0
    5.1490   -5.2800   28.8740 N   0  0  0  0  0  0  0  0  0  0  0  0
    4.0330   -5.4980   29.5930 C   0  0  0  0  0  0  0  0  0  0  0  0
    3.3900   -4.6400   30.2460 O   0  0  0  0  0  0  0  0  0  0  0  0
    3.4190   -6.7550   29.7120 C   0  0  0  0  0  0  0  0  0  0  0  0
    3.6480   -7.3350   30.9460 C   0  0  0  0  0  0  0  0  0  0  0  0
    4.9350   -7.3350   31.6270 C   0  0  0  0  0  0  0  0  0  0  0  0
    5.1690   -7.9020   32.8450 C   0  0  0  0  0  0  0  0  0  0  0  0
    4.1580   -8.5310   33.5220 C   0  0  0  0  0  0  0  0  0  0  0  0
    2.8840   -8.5870   32.9550 C   0  0  0  0  0  0  0  0  0  0  0  0
    2.6150   -7.9740   31.6310 C   0  0  0  0  0  0  0  0  0  0  0  0
    1.3290   -8.0920   31.1850 F   0  0  0  0  0  0  0  0  0  0  0  0
    4.9920   -5.7360   27.5710 C   0  0  0  0  0  0  0  0  0  0  0  0
    6.1260   -5.3810   26.9510 C   0  0  0  0  0  0  0  0  0  0  0  0
    6.2880   -5.2730   23.8580 C   0  0  0  0  0  0  0  0  0  0  0  0
    6.6860   -5.5930   22.4070 C   0  0  0  0  0  0  0  0  0  0  0  0
  1  2  1  0
  2  3  2  0
  2  4  1  0
  4  5  1  0
  5  6  1  0
  6  7  1  0
  7  8  1  0
  8  9  2  0
  8 10  1  0
 10 11  1  0
 11 12  1  0
 12 13  1  0
 13 14  1  0
 14 15  2  0
 14 16  1  0
 16 17  1  0
 17 18  2  0
 18 19  1  0
 19 20  2  0
 20 21  1  0
 17 22  1  0
 21 22  2  0
 22 23  1  0
 13 24  1  0
 10 25  1  0
 24 25  1  0
  7 26  1  0
  4 27  1  0
 26 27  1  0
M  END
