piperidine-amides-13551-covalent
     RDKit          3D

 23 25  0  0  0  0  0  0  0  0999 V2000
    7.0410   -3.3350   19.3210 C   0  0  0  0  0  0  0  0  0  0  0  0
    6.3480   -4.1810   20.3290 C   0  0  0  0  0  0  0  0  0  0  0  0
    5.3710   -4.8620   19.9780 O   0  0  0  0  0  0  0  0  0  0  0  0
    6.8450   -4.2130   21.6480 N   0  0  0  0  0  0  0  0  0  0  0  0
    7.7070   -3.1660   22.1670 C   0  0  0  0  0  0  0  0  0  0  0  0
    7.4770   -3.0150   23.6740 C   0  0  0  0  0  0  0  0  0  0  0  0
    6.1220   -3.5470   23.9720 C   0  0  0  0  0  0  0  0  0  0  0  0
    5.6370   -3.2140   25.3290 C   0  0  0  0  0  0  0  0  0  0  0  0
    4.4220   -3.3080   25.5190 O   0  0  0  0  0  0  0  0  0  0  0  0
    6.5490   -2.8200   26.3070 N   0  0  0  0  0  0  0  0  0  0  0  0
    6.5090   -1.6500   27.1150 C   0  0  0  0  0  0  0  0  0  0  0  0
    6.9970   -1.5940   28.4110 C   0  0  0  0  0  0  0  0  0  0  0  0
    6.9630   -0.4440   29.2230 C   0  0  0  0  0  0  0  0  0  0  0  0
    6.4240    0.7310   28.7570 C   0  0  0  0  0  0  0  0  0  0  0  0
    5.8730    0.7840   27.3810 C   0  0  0  0  0  0  0  0  0  0  0  0
    5.9390   -0.4920   26.5550 C   0  0  0  0  0  0  0  0  0  0  0  0
    5.3250    1.9160   26.8530 C   0  0  0  0  0  0  0  0  0  0  0  0
    5.0210    2.8970   27.7650 C   0  0  0  0  0  0  0  0  0  0  0  0
    6.0710    3.1400   28.7730 C   0  0  1  0  0  0  0  0  0  0  0  0
    5.2130    4.2150   29.4190 C   0  0  0  0  0  0  0  0  0  0  0  0
    6.3930    1.9520   29.6300 C   0  0  0  0  0  0  0  0  0  0  0  0
    6.0000   -5.0220   23.7740 C   0  0  0  0  0  0  0  0  0  0  0  0
    6.6430   -5.4030   22.4620 C   0  0  0  0  0  0  0  0  0  0  0  0
  1  2  1  0
  2  3  2  0
  2  4  1  0
  4  5  1  0
  5  6  1  0
  6  7  1  0
  7  8  1  0
  8  9  2  0
  8 10  1  0
 10 11  1  0
 11 12  2  0
 12 13  1  0
 13 14  2  0
 14 15  1  0
 11 16  1  0
 15 16  2  0
 15 17  1  0
 17 18  1  0
 18 19  1  0
 19 20  1  1
 14 21  1  0
 19 21  1  0
  7 22  1  0
  4 23  1  0
 22 23  1  0
M  END
