piperidine-amides-33511-covalent
     RDKit          3D

 29 32  0  0  0  0  0  0  0  0999 V2000
    7.0940   -3.3550   19.3370 C   0  0  0  0  0  0  0  0  0  0  0  0
    6.4480   -4.2030   20.3510 C   0  0  0  0  0  0  0  0  0  0  0  0
    5.4200   -4.8310   19.9900 O   0  0  0  0  0  0  0  0  0  0  0  0
    7.0120   -4.3390   21.6520 N   0  0  0  0  0  0  0  0  0  0  0  0
    6.5780   -5.4300   22.4570 C   0  0  0  0  0  0  0  0  0  0  0  0
    6.1250   -5.0230   23.7870 C   0  0  0  0  0  0  0  0  0  0  0  0
    6.1860   -3.5620   24.0100 C   0  0  0  0  0  0  0  0  0  0  0  0
    5.5610   -3.0760   25.2900 C   0  0  0  0  0  0  0  0  0  0  0  0
    4.3840   -2.6700   25.2220 O   0  0  0  0  0  0  0  0  0  0  0  0
    6.1730   -3.0130   26.5600 N   0  0  0  0  0  0  0  0  0  0  0  0
    5.9490   -3.9930   27.5650 C   0  0  0  0  0  0  0  0  0  0  0  0
    5.1780   -5.2180   27.3160 C   0  0  0  0  0  0  0  0  0  0  0  0
    4.4640   -5.1820   25.9970 C   0  0  0  0  0  0  0  0  0  0  0  0
    3.6780   -6.1810   25.5350 C   0  0  0  0  0  0  0  0  0  0  0  0
    3.4980   -7.4290   26.4080 C   0  0  0  0  0  0  0  0  0  0  0  0
    4.2160   -7.4860   27.7530 C   0  0  0  0  0  0  0  0  0  0  0  0
    5.1130   -6.3260   28.2440 C   0  0  0  0  0  0  0  0  0  0  0  0
    5.8860   -6.5010   29.7870 Cl  0  0  0  0  0  0  0  0  0  0  0  0
    6.3170   -1.7890   27.2810 C   0  0  0  0  0  0  0  0  0  0  0  0
    6.8420   -1.9350   28.5960 N   0  0  0  0  0  0  0  0  0  0  0  0
    6.9050   -0.7120   29.1420 C   0  0  0  0  0  0  0  0  0  0  0  0
    7.3860   -0.2950   30.5250 C   0  0  0  0  0  0  0  0  0  0  0  0
    7.2980    1.1820   30.7620 C   0  0  0  0  0  0  0  0  0  0  0  0
    6.8220    2.1160   29.8120 C   0  0  0  0  0  0  0  0  0  0  0  0
    6.3930    1.6940   28.5570 C   0  0  0  0  0  0  0  0  0  0  0  0
    6.4580    0.2210   28.2670 C   0  0  0  0  0  0  0  0  0  0  0  0
    6.1200   -0.4600   27.1710 N   0  0  0  0  0  0  0  0  0  0  0  0
    7.5500   -3.0490   23.6940 C   0  0  0  0  0  0  0  0  0  0  0  0
    7.7710   -3.2370   22.2030 C   0  0  0  0  0  0  0  0  0  0  0  0
  1  2  1  0
  2  3  2  0
  2  4  1  0
  4  5  1  0
  5  6  1  0
  6  7  1  0
  7  8  1  0
  8  9  2  0
  8 10  1  0
 10 11  1  0
 11 12  1  0
 12 13  2  0
 13 14  1  0
 14 15  2  0
 15 16  1  0
 12 17  1  0
 16 17  2  0
 17 18  1  0
 10 19  1  0
 19 20  2  0
 20 21  1  0
 21 22  2  0
 22 23  1  0
 23 24  2  0
 24 25  1  0
 21 26  1  0
 25 26  2  0
 19 27  1  0
 26 27  1  0
  7 28  1  0
  4 29  1  0
 28 29  1  0
M  END
