piperidine-amides-31294-covalent
     RDKit          3D

 28 31  0  0  0  0  0  0  0  0999 V2000
    6.9830   -3.4310   19.4310 C   0  0  0  0  0  0  0  0  0  0  0  0
    6.3580   -4.2660   20.4390 C   0  0  0  0  0  0  0  0  0  0  0  0
    5.4250   -5.0210   20.0250 O   0  0  0  0  0  0  0  0  0  0  0  0
    6.7520   -4.3000   21.8080 N   0  0  0  0  0  0  0  0  0  0  0  0
    6.5660   -5.6010   22.5320 C   0  0  0  0  0  0  0  0  0  0  0  0
    5.9320   -5.1990   23.9470 C   0  0  0  0  0  0  0  0  0  0  0  0
    6.1350   -3.7140   24.0730 C   0  0  0  0  0  0  0  0  0  0  0  0
    5.2820   -2.8540   25.1360 C   0  0  0  0  0  0  0  0  0  0  0  0
    5.0430   -1.7960   24.6010 O   0  0  0  0  0  0  0  0  0  0  0  0
    4.9960   -3.3830   26.2770 N   0  0  0  0  0  0  0  0  0  0  0  0
    4.3000   -3.6730   27.4010 C   0  0  0  0  0  0  0  0  0  0  0  0
    4.7820   -3.8470   28.6420 C   0  0  0  0  0  0  0  0  0  0  0  0
    6.1250   -3.8270   28.3140 C   0  0  2  0  0  0  0  0  0  0  0  0
    6.8060   -4.9890   28.8920 C   0  0  0  0  0  0  0  0  0  0  0  0
    6.5200   -2.4870   28.9200 C   0  0  0  0  0  0  0  0  0  0  0  0
    5.7250   -2.0750   30.0360 N   0  0  0  0  0  0  0  0  0  0  0  0
    6.3850   -0.8560   30.2780 C   0  0  0  0  0  0  0  0  0  0  0  0
    5.9800   -0.0230   31.3330 C   0  0  0  0  0  0  0  0  0  0  0  0
    4.5370   -0.0580   31.6170 N   0  0  0  0  0  0  0  0  0  0  0  0
    4.0350    0.7590   32.6880 C   0  0  0  0  0  0  0  0  0  0  0  0
    5.0720    1.6020   33.4380 C   0  0  0  0  0  0  0  0  0  0  0  0
    6.3780    1.5790   33.1140 C   0  0  0  0  0  0  0  0  0  0  0  0
    6.8150    0.7900   32.0930 N   0  0  0  0  0  0  0  0  0  0  0  0
    7.4420   -0.5220   29.4470 N   0  0  0  0  0  0  0  0  0  0  0  0
    7.5390   -1.5540   28.5750 O   0  0  0  0  0  0  0  0  0  0  0  0
    6.2260   -3.8780   26.8530 C   0  0  0  0  0  0  0  0  0  0  0  0
    7.5380   -3.2670   23.7280 C   0  0  0  0  0  0  0  0  0  0  0  0
    7.6520   -3.2960   22.3630 C   0  0  0  0  0  0  0  0  0  0  0  0
  1  2  1  0
  2  3  2  0
  2  4  1  0
  4  5  1  0
  5  6  1  0
  6  7  1  0
  7  8  1  0
  8  9  2  0
  8 10  1  0
 10 11  1  0
 11 12  1  0
 12 13  1  0
 13 14  1  1
 13 15  1  0
 15 16  2  0
 16 17  1  0
 17 18  1  0
 18 19  2  0
 19 20  1  0
 20 21  2  0
 21 22  1  0
 18 23  1  0
 22 23  2  0
 17 24  2  0
 15 25  1  0
 24 25  1  0
 10 26  1  0
 13 26  1  0
  7 27  1  0
  4 28  1  0
 27 28  1  0
M  END
