piperidine-amides-25597-covalent
     RDKit          3D

 24 26  0  0  0  0  0  0  0  0999 V2000
    7.0800   -3.3380   19.2920 C   0  0  0  0  0  0  0  0  0  0  0  0
    6.4230   -4.1850   20.3190 C   0  0  0  0  0  0  0  0  0  0  0  0
    5.4080   -4.7960   19.9740 O   0  0  0  0  0  0  0  0  0  0  0  0
    6.9830   -4.3050   21.5970 N   0  0  0  0  0  0  0  0  0  0  0  0
    6.7750   -5.5020   22.3820 C   0  0  0  0  0  0  0  0  0  0  0  0
    6.1210   -5.1340   23.6830 C   0  0  0  0  0  0  0  0  0  0  0  0
    6.1840   -3.6200   23.8220 C   0  0  0  0  0  0  0  0  0  0  0  0
    5.6440   -3.2270   25.1250 C   0  0  0  0  0  0  0  0  0  0  0  0
    4.7700   -2.3560   25.1820 O   0  0  0  0  0  0  0  0  0  0  0  0
    6.0800   -3.8240   26.2990 N   0  0  0  0  0  0  0  0  0  0  0  0
    6.2610   -2.9260   27.4500 C   0  0  0  0  0  0  0  0  0  0  0  0
    6.3780   -3.7760   28.6500 C   0  0  0  0  0  0  0  0  0  0  0  0
    5.9660   -4.9770   28.3880 C   0  0  1  0  0  0  0  0  0  0  0  0
    5.8360   -5.9080   29.1740 C   0  0  0  0  0  0  0  0  0  0  0  0
    4.5460   -5.3020   28.9820 C   0  0  0  0  0  0  0  0  0  0  0  0
    3.7460   -6.3370   28.5250 F   0  0  0  0  0  0  0  0  0  0  0  0
    4.0350   -4.7470   30.1370 F   0  0  0  0  0  0  0  0  0  0  0  0
    5.6940   -5.0920   26.9510 C   0  0  1  0  0  0  0  0  0  0  0  0
    4.3040   -5.4440   26.5150 C   0  0  0  0  0  0  0  0  0  0  0  0
    3.2800   -4.6080   26.8560 O   0  0  0  0  0  0  0  0  0  0  0  0
    4.0690   -6.5900   25.7840 O   0  0  0  0  0  0  0  0  0  0  0  0
    3.2370   -7.6290   26.3220 C   0  0  0  0  0  0  0  0  0  0  0  0
    7.4940   -3.0320   23.5390 C   0  0  0  0  0  0  0  0  0  0  0  0
    7.8130   -3.2290   22.1080 C   0  0  0  0  0  0  0  0  0  0  0  0
  1  2  1  0
  2  3  2  0
  2  4  1  0
  4  5  1  0
  5  6  1  0
  6  7  1  0
  7  8  1  0
  8  9  2  0
  8 10  1  0
 10 11  1  0
 11 12  1  0
 13 12  1  6
 13 14  1  0
 13 15  1  0
 14 15  1  0
 15 16  1  0
 15 17  1  0
 10 18  1  0
 13 18  1  0
 18 19  1  1
 19 20  2  0
 19 21  1  0
 21 22  1  0
  7 23  1  0
  4 24  1  0
 23 24  1  0
M  END
