piperidine-amides-24417-covalent
     RDKit          3D

 23 25  0  0  0  0  0  0  0  0999 V2000
    7.0470   -3.3380   19.3900 C   0  0  0  0  0  0  0  0  0  0  0  0
    6.3870   -4.2180   20.3720 C   0  0  0  0  0  0  0  0  0  0  0  0
    5.4240   -4.9290   20.0060 O   0  0  0  0  0  0  0  0  0  0  0  0
    6.8510   -4.2950   21.7040 N   0  0  0  0  0  0  0  0  0  0  0  0
    6.7280   -5.5640   22.4050 C   0  0  0  0  0  0  0  0  0  0  0  0
    6.1220   -5.2660   23.7830 C   0  0  0  0  0  0  0  0  0  0  0  0
    6.2040   -3.7710   23.9190 C   0  0  0  0  0  0  0  0  0  0  0  0
    5.6900   -3.2560   25.2120 C   0  0  0  0  0  0  0  0  0  0  0  0
    4.9480   -2.2590   25.1600 O   0  0  0  0  0  0  0  0  0  0  0  0
    5.9670   -3.8480   26.4670 N   0  0  0  0  0  0  0  0  0  0  0  0
    6.3520   -2.9600   27.5400 C   0  0  0  0  0  0  0  0  0  0  0  0
    6.6250   -3.8640   28.6920 C   0  0  0  0  0  0  0  0  0  0  0  0
    5.9700   -4.9710   28.4510 C   0  0  1  0  0  0  0  0  0  0  0  0
    5.3460   -5.5450   29.5270 C   0  0  0  0  0  0  0  0  0  0  0  0
    5.7590   -6.6850   30.1500 C   0  0  0  0  0  0  0  0  0  0  0  0
    5.1400   -7.2440   31.2190 C   0  0  0  0  0  0  0  0  0  0  0  0
    4.0190   -6.7530   31.8240 N   0  0  0  0  0  0  0  0  0  0  0  0
    3.5150   -5.6030   31.2690 C   0  0  0  0  0  0  0  0  0  0  0  0
    2.0880   -4.8460   31.9170 Cl  0  0  0  0  0  0  0  0  0  0  0  0
    4.2340   -4.9950   30.0660 C   0  0  0  0  0  0  0  0  0  0  0  0
    5.1660   -4.6710   27.3980 C   0  0  0  0  0  0  0  0  0  0  0  0
    7.6140   -3.3320   23.6430 C   0  0  0  0  0  0  0  0  0  0  0  0
    7.7100   -3.2440   22.2440 C   0  0  0  0  0  0  0  0  0  0  0  0
  1  2  1  0
  2  3  2  0
  2  4  1  0
  4  5  1  0
  5  6  1  0
  6  7  1  0
  7  8  1  0
  8  9  2  0
  8 10  1  0
 10 11  1  0
 11 12  1  0
 12 13  1  0
 13 14  1  1
 14 15  2  0
 15 16  1  0
 16 17  2  0
 17 18  1  0
 18 19  1  0
 14 20  1  0
 18 20  2  0
 10 21  1  0
 13 21  1  0
  7 22  1  0
  4 23  1  0
 22 23  1  0
M  END
