piperidine-amides-27177-covalent
     RDKit          3D

 25 26  0  0  0  0  0  0  0  0999 V2000
    7.0430   -3.3010   19.3260 C   0  0  0  0  0  0  0  0  0  0  0  0
    6.3630   -4.1130   20.3430 C   0  0  0  0  0  0  0  0  0  0  0  0
    5.3350   -4.7230   19.9490 O   0  0  0  0  0  0  0  0  0  0  0  0
    6.8530   -4.2380   21.6600 N   0  0  0  0  0  0  0  0  0  0  0  0
    6.6650   -5.4700   22.3960 C   0  0  0  0  0  0  0  0  0  0  0  0
    6.1390   -5.1660   23.7810 C   0  0  0  0  0  0  0  0  0  0  0  0
    6.0400   -3.6880   24.0540 C   0  0  0  0  0  0  0  0  0  0  0  0
    5.5240   -3.4470   25.4390 C   0  0  0  0  0  0  0  0  0  0  0  0
    4.2960   -3.6170   25.5860 O   0  0  0  0  0  0  0  0  0  0  0  0
    6.2580   -3.0280   26.5870 N   0  0  0  0  0  0  0  0  0  0  0  0
    6.1990   -3.8390   27.8120 C   0  0  0  0  0  0  0  0  0  0  0  0
    6.0510   -5.3480   27.5740 C   0  0  0  0  0  0  0  0  0  0  0  0
    4.9730   -5.8830   28.4120 N   0  0  0  0  0  0  0  0  0  0  0  0
    5.1400   -5.8100   29.7200 C   0  0  0  0  0  0  0  0  0  0  0  0
    4.2930   -6.9300   27.9060 C   0  0  0  0  0  0  0  0  0  0  0  0
    6.5330   -1.5940   26.6040 C   0  0  0  0  0  0  0  0  0  0  0  0
    6.0160   -0.7450   27.5950 C   0  0  2  0  0  0  0  0  0  0  0  0
    5.1540   -1.6260   28.2650 C   0  0  0  0  0  0  0  0  0  0  0  0
    4.0910   -1.0120   29.1530 C   0  0  0  0  0  0  0  0  0  0  0  0
    4.5610    0.3860   28.8750 C   0  0  0  0  0  0  0  0  0  0  0  0
    5.6560    0.3030   27.9980 N   0  0  0  0  0  0  0  0  0  0  0  0
    6.1920    1.5650   27.6980 C   0  0  0  0  0  0  0  0  0  0  0  0
    5.2310    2.7300   27.8860 C   0  0  0  0  0  0  0  0  0  0  0  0
    7.2990   -2.9780   23.7170 C   0  0  0  0  0  0  0  0  0  0  0  0
    7.6520   -3.1820   22.2510 C   0  0  0  0  0  0  0  0  0  0  0  0
  1  2  1  0
  2  3  2  0
  2  4  1  0
  4  5  1  0
  5  6  1  0
  6  7  1  0
  7  8  1  0
  8  9  2  0
  8 10  1  0
 10 11  1  0
 11 12  1  0
 12 13  1  0
 13 14  1  0
 13 15  1  0
 10 16  1  0
 17 16  1  6
 17 18  1  0
 18 19  1  0
 19 20  1  0
 17 21  1  0
 20 21  1  0
 21 22  1  0
 22 23  1  0
  7 24  1  0
  4 25  1  0
 24 25  1  0
M  END
