piperidine-amides-32928-covalent
     RDKit          3D

 29 31  0  0  0  0  0  0  0  0999 V2000
    7.0890   -3.3440   19.3390 C   0  0  0  0  0  0  0  0  0  0  0  0
    6.3870   -4.2190   20.3170 C   0  0  0  0  0  0  0  0  0  0  0  0
    5.3550   -4.8110   19.9690 O   0  0  0  0  0  0  0  0  0  0  0  0
    6.9440   -4.3940   21.6030 N   0  0  0  0  0  0  0  0  0  0  0  0
    7.7450   -3.3850   22.2380 C   0  0  0  0  0  0  0  0  0  0  0  0
    6.8150   -2.6700   23.2130 C   0  0  0  0  0  0  0  0  0  0  0  0
    6.2580   -3.6910   24.1590 C   0  0  0  0  0  0  0  0  0  0  0  0
    5.4590   -3.0380   25.2330 C   0  0  0  0  0  0  0  0  0  0  0  0
    4.2480   -2.9290   25.0110 O   0  0  0  0  0  0  0  0  0  0  0  0
    6.0540   -2.5840   26.4260 N   0  0  0  0  0  0  0  0  0  0  0  0
    6.5060   -1.2960   26.7760 C   0  0  1  0  0  0  0  0  0  0  0  0
    5.6410   -0.2350   26.7030 C   0  0  0  0  0  0  0  0  0  0  0  0
    5.9810    0.9040   27.4420 C   0  0  0  0  0  0  0  0  0  0  0  0
    6.1020    0.7480   28.8020 C   0  0  1  0  0  0  0  0  0  0  0  0
    5.1500    0.9330   29.7080 O   0  0  0  0  0  0  0  0  0  0  0  0
    6.8380   -0.4940   29.1680 C   0  0  0  0  0  0  0  0  0  0  0  0
    7.2350   -1.3840   27.9830 C   0  0  0  0  0  0  0  0  0  0  0  0
    6.1850   -3.5530   27.4540 C   0  0  1  0  0  0  0  0  0  0  0  0
    5.1480   -4.4740   27.4720 C   0  0  0  0  0  0  0  0  0  0  0  0
    5.2330   -5.7110   26.6400 C   0  0  0  0  0  0  0  0  0  0  0  0
    7.3400   -4.4000   27.1770 C   0  0  0  0  0  0  0  0  0  0  0  0
    7.1300   -5.3570   28.1630 C   0  0  0  0  0  0  0  0  0  0  0  0
    8.2840   -6.2460   27.8410 C   0  0  0  0  0  0  0  0  0  0  0  0
    9.3450   -6.1890   26.8160 C   0  0  0  0  0  0  0  0  0  0  0  0
    9.3410   -5.0620   25.9130 C   0  0  0  0  0  0  0  0  0  0  0  0
    8.2710   -4.1250   26.1280 C   0  0  0  0  0  0  0  0  0  0  0  0
    8.0290   -2.9640   25.4240 O   0  0  0  0  0  0  0  0  0  0  0  0
    5.5010   -4.7880   23.4210 C   0  0  0  0  0  0  0  0  0  0  0  0
    6.3270   -5.3580   22.4890 C   0  0  0  0  0  0  0  0  0  0  0  0
  1  2  1  0
  2  3  2  0
  2  4  1  0
  4  5  1  0
  5  6  1  0
  6  7  1  0
  7  8  1  0
  8  9  2  0
  8 10  1  0
 11 10  1  1
 11 12  1  0
 12 13  1  0
 13 14  1  0
 14 15  1  1
 14 16  1  0
 11 17  1  0
 16 17  1  0
 10 18  1  0
 18 19  1  6
 19 20  1  0
 18 21  1  0
 21 22  2  0
 22 23  1  0
 23 24  2  0
 24 25  1  0
 21 26  1  0
 25 26  2  0
 26 27  1  0
  7 28  1  0
  4 29  1  0
 28 29  1  0
M  END
