piperidine-amides-483-covalent
     RDKit          3D

 27 29  0  0  0  0  0  0  0  0999 V2000
    7.0590   -3.3510   19.3040 C   0  0  0  0  0  0  0  0  0  0  0  0
    6.3000   -4.0370   20.3280 C   0  0  0  0  0  0  0  0  0  0  0  0
    5.2770   -4.6760   19.9380 O   0  0  0  0  0  0  0  0  0  0  0  0
    6.6610   -4.0990   21.7010 N   0  0  0  0  0  0  0  0  0  0  0  0
    7.6990   -3.1180   22.1670 C   0  0  0  0  0  0  0  0  0  0  0  0
    7.3320   -2.7560   23.6700 C   0  0  0  0  0  0  0  0  0  0  0  0
    6.3140   -3.7580   24.1160 C   0  0  0  0  0  0  0  0  0  0  0  0
    5.8370   -3.6210   25.6300 C   0  0  0  0  0  0  0  0  0  0  0  0
    5.2690   -4.6430   25.9580 O   0  0  0  0  0  0  0  0  0  0  0  0
    6.1120   -2.4890   26.1490 N   0  0  0  0  0  0  0  0  0  0  0  0
    6.1720   -1.3030   26.8190 C   0  0  0  0  0  0  0  0  0  0  0  0
    5.7490   -0.0040   26.5540 C   0  0  0  0  0  0  0  0  0  0  0  0
    5.9140    1.0610   27.4690 C   0  0  0  0  0  0  0  0  0  0  0  0
    6.5530    0.7980   28.7420 C   0  0  0  0  0  0  0  0  0  0  0  0
    6.5710    2.1310   29.5310 C   0  0  0  0  0  0  0  0  0  0  0  0
    7.6600    2.9180   28.9560 N   0  0  0  0  0  0  0  0  0  0  0  0
    7.2830    3.4460   27.6920 C   0  0  0  0  0  0  0  0  0  0  0  0
    7.9830    4.6390   27.4540 C   0  0  0  0  0  0  0  0  0  0  0  0
    8.1280    5.3210   28.7180 N   0  0  0  0  0  0  0  0  0  0  0  0
    7.5420    6.6320   28.7370 C   0  0  0  0  0  0  0  0  0  0  0  0
    6.0850    6.3970   29.2580 C   0  0  0  0  0  0  0  0  0  0  0  0
    8.6880    4.7440   29.9150 C   0  0  0  0  0  0  0  0  0  0  0  0
    8.7520    3.3880   29.7370 C   0  0  0  0  0  0  0  0  0  0  0  0
    7.0430   -0.5480   29.0940 C   0  0  0  0  0  0  0  0  0  0  0  0
    6.8650   -1.5690   28.1780 C   0  0  0  0  0  0  0  0  0  0  0  0
    6.5300   -5.1860   23.7780 C   0  0  0  0  0  0  0  0  0  0  0  0
    6.5600   -5.4060   22.3080 C   0  0  0  0  0  0  0  0  0  0  0  0
  1  2  1  0
  2  3  2  0
  2  4  1  0
  4  5  1  0
  5  6  1  0
  6  7  1  0
  7  8  1  0
  8  9  2  0
  8 10  1  0
 10 11  1  0
 11 12  2  0
 12 13  1  0
 13 14  2  0
 14 15  1  0
 15 16  1  0
 16 17  1  0
 17 18  1  0
 18 19  1  0
 19 20  1  0
 20 21  1  0
 19 22  1  0
 16 23  1  0
 22 23  1  0
 14 24  1  0
 11 25  1  0
 24 25  2  0
  7 26  1  0
  4 27  1  0
 26 27  1  0
M  END
