piperidine-amides-24013-covalent
     RDKit          3D

 24 25  0  0  0  0  0  0  0  0999 V2000
    7.1340   -3.2760   19.1630 C   0  0  0  0  0  0  0  0  0  0  0  0
    6.3760   -4.0160   20.1870 C   0  0  0  0  0  0  0  0  0  0  0  0
    5.2610   -4.4750   19.8520 O   0  0  0  0  0  0  0  0  0  0  0  0
    6.9160   -4.2640   21.4700 N   0  0  0  0  0  0  0  0  0  0  0  0
    7.6290   -3.2130   22.1030 C   0  0  0  0  0  0  0  0  0  0  0  0
    7.5210   -3.1810   23.5550 C   0  0  0  0  0  0  0  0  0  0  0  0
    6.4710   -4.0310   24.1650 C   0  0  0  0  0  0  0  0  0  0  0  0
    5.7260   -3.2340   25.1870 C   0  0  0  0  0  0  0  0  0  0  0  0
    4.5000   -3.0600   25.0530 O   0  0  0  0  0  0  0  0  0  0  0  0
    6.3850   -2.6610   26.2840 N   0  0  0  0  0  0  0  0  0  0  0  0
    6.9770   -1.3960   26.3280 C   0  0  0  0  0  0  0  0  0  0  0  0
    5.9990   -3.1580   27.5740 C   0  0  0  0  0  0  0  0  0  0  0  0
    5.2010   -4.4570   27.5890 C   0  0  0  0  0  0  0  0  0  0  0  0
    3.9270   -4.2990   26.8240 N   0  0  0  0  0  0  0  0  0  0  0  0
    3.0350   -5.4600   26.7320 C   0  0  0  0  0  0  0  0  0  0  0  0
    3.5110   -6.7240   27.4460 C   0  0  0  0  0  0  0  0  0  0  0  0
    2.5170   -7.8200   27.2740 C   0  0  0  0  0  0  0  0  0  0  0  0
    4.8220   -6.7740   28.2000 C   0  0  0  0  0  0  0  0  0  0  0  0
    5.1850   -7.9430   28.8330 O   0  0  0  0  0  0  0  0  0  0  0  0
    5.8620   -7.8540   30.0810 C   0  0  0  0  0  0  0  0  0  0  0  0
    5.6670   -5.5680   28.2400 C   0  0  0  0  0  0  0  0  0  0  0  0
    6.8970   -5.9360   29.0540 C   0  0  0  0  0  0  0  0  0  0  0  0
    5.5640   -4.6560   23.1580 C   0  0  0  0  0  0  0  0  0  0  0  0
    6.4150   -5.3310   22.2900 C   0  0  0  0  0  0  0  0  0  0  0  0
  1  2  1  0
  2  3  2  0
  2  4  1  0
  4  5  1  0
  5  6  1  0
  6  7  1  0
  7  8  1  0
  8  9  2  0
  8 10  1  0
 10 11  1  0
 10 12  1  0
 12 13  1  0
 13 14  2  0
 14 15  1  0
 15 16  2  0
 16 17  1  0
 16 18  1  0
 18 19  1  0
 19 20  1  0
 13 21  1  0
 18 21  2  0
 21 22  1  0
  7 23  1  0
  4 24  1  0
 23 24  1  0
M  END
