piperidine-amides-29841-covalent
     RDKit          3D

 27 30  0  0  0  0  0  0  0  0999 V2000
    7.1320   -3.3470   19.2740 C   0  0  0  0  0  0  0  0  0  0  0  0
    6.3570   -4.1250   20.2200 C   0  0  0  0  0  0  0  0  0  0  0  0
    5.2660   -4.5840   19.8970 O   0  0  0  0  0  0  0  0  0  0  0  0
    6.9180   -4.4250   21.4990 N   0  0  0  0  0  0  0  0  0  0  0  0
    7.6550   -3.4340   22.2280 C   0  0  0  0  0  0  0  0  0  0  0  0
    6.9340   -3.0870   23.4950 C   0  0  0  0  0  0  0  0  0  0  0  0
    6.4490   -4.3610   24.1900 C   0  0  0  0  0  0  0  0  0  0  0  0
    5.3850   -3.9870   25.1330 C   0  0  0  0  0  0  0  0  0  0  0  0
    4.1780   -3.9510   24.8380 O   0  0  0  0  0  0  0  0  0  0  0  0
    5.7660   -3.6220   26.4030 N   0  0  0  0  0  0  0  0  0  0  0  0
    5.6370   -4.5140   27.5380 C   0  0  0  0  0  0  0  0  0  0  0  0
    7.0250   -4.4150   27.9530 C   0  0  0  0  0  0  0  0  0  0  0  0
    7.8180   -5.5710   27.4700 C   0  0  0  0  0  0  0  0  0  0  0  0
    9.0790   -5.4200   27.8170 C   0  0  0  0  0  0  0  0  0  0  0  0
    7.9340   -4.7710   27.9390 C   0  0  0  0  0  0  0  0  0  0  0  0
    8.5440   -3.8320   28.5470 N   0  0  0  0  0  0  0  0  0  0  0  0
    7.3910   -3.1380   28.7650 C   0  0  0  0  0  0  0  0  0  0  0  0
    6.0570   -2.7960   28.7730 N   0  0  0  0  0  0  0  0  0  0  0  0
    5.7920   -2.0690   29.8860 C   0  0  0  0  0  0  0  0  0  0  0  0
    5.2660   -0.8620   29.6020 C   0  0  2  0  0  0  0  0  0  0  0  0
    4.0420   -0.8100   30.2440 O   0  0  0  0  0  0  0  0  0  0  0  0
    3.2850    0.3020   29.8620 C   0  0  0  0  0  0  0  0  0  0  0  0
    5.1330   -0.8860   28.1750 C   0  0  0  0  0  0  0  0  0  0  0  0
    5.3990   -2.1900   27.7650 C   0  0  1  0  0  0  0  0  0  0  0  0
    6.2360   -2.3360   26.7360 C   0  0  0  0  0  0  0  0  0  0  0  0
    5.7820   -5.3590   23.2800 C   0  0  0  0  0  0  0  0  0  0  0  0
    6.6910   -5.6920   22.1110 C   0  0  0  0  0  0  0  0  0  0  0  0
  1  2  1  0
  2  3  2  0
  2  4  1  0
  4  5  1  0
  5  6  1  0
  6  7  1  0
  7  8  1  0
  8  9  2  0
  8 10  1  0
 10 11  1  0
 11 12  1  0
 12 13  1  0
 13 14  2  0
 14 15  1  0
 15 16  2  0
 12 17  2  0
 16 17  1  0
 17 18  1  0
 18 19  1  0
 19 20  1  0
 20 21  1  1
 21 22  1  0
 20 23  1  0
 18 24  1  0
 24 23  1  1
 10 25  1  0
 24 25  1  0
  7 26  1  0
  4 27  1  0
 26 27  1  0
M  END
