piperidine-amides-30890-covalent
     RDKit          3D

 27 29  0  0  0  0  0  0  0  0999 V2000
    7.0980   -3.3660   19.3410 C   0  0  0  0  0  0  0  0  0  0  0  0
    6.3770   -4.1610   20.3280 C   0  0  0  0  0  0  0  0  0  0  0  0
    5.3640   -4.7890   19.9750 O   0  0  0  0  0  0  0  0  0  0  0  0
    6.8560   -4.2640   21.6480 N   0  0  0  0  0  0  0  0  0  0  0  0
    7.7240   -3.2380   22.1970 C   0  0  0  0  0  0  0  0  0  0  0  0
    7.4640   -3.1870   23.6790 C   0  0  0  0  0  0  0  0  0  0  0  0
    6.1570   -3.8410   24.0050 C   0  0  0  0  0  0  0  0  0  0  0  0
    5.5740   -3.4690   25.3230 C   0  0  0  0  0  0  0  0  0  0  0  0
    4.4750   -2.8460   25.3400 O   0  0  0  0  0  0  0  0  0  0  0  0
    6.1230   -3.7430   26.5940 N   0  0  0  0  0  0  0  0  0  0  0  0
    6.0320   -2.6630   27.5860 C   0  0  0  0  0  0  0  0  0  0  0  0
    6.3520   -3.2630   28.8800 C   0  0  0  0  0  0  0  0  0  0  0  0
    7.1400   -4.2350   28.8630 O   0  0  0  0  0  0  0  0  0  0  0  0
    6.6020   -5.3530   28.3890 C   0  0  1  0  0  0  0  0  0  0  0  0
    5.5660   -6.1240   29.1780 C   0  0  0  0  0  0  0  0  0  0  0  0
    4.2480   -5.8110   28.6460 N   0  0  0  0  0  0  0  0  0  0  0  0
    3.4350   -7.0110   28.8550 C   0  0  0  0  0  0  0  0  0  0  0  0
    2.5680   -7.3210   27.9580 O   0  0  0  0  0  0  0  0  0  0  0  0
    3.6150   -7.7540   30.0040 O   0  0  0  0  0  0  0  0  0  0  0  0
    2.8300   -7.4650   31.1610 C   0  0  0  0  0  0  0  0  0  0  0  0
    3.5110   -8.1150   32.1620 C   0  0  0  0  0  0  0  0  0  0  0  0
    2.1920   -8.5510   32.0020 C   0  0  0  0  0  0  0  0  0  0  0  0
    3.2520   -6.2140   31.9330 C   0  0  0  0  0  0  0  0  0  0  0  0
    4.5620   -5.4360   27.2920 C   0  0  0  0  0  0  0  0  0  0  0  0
    5.9850   -5.1190   27.0690 C   0  0  1  0  0  0  0  0  0  0  0  0
    6.2660   -5.3000   23.7330 C   0  0  0  0  0  0  0  0  0  0  0  0
    6.6200   -5.5190   22.3080 C   0  0  0  0  0  0  0  0  0  0  0  0
  1  2  1  0
  2  3  2  0
  2  4  1  0
  4  5  1  0
  5  6  1  0
  6  7  1  0
  7  8  1  0
  8  9  2  0
  8 10  1  0
 10 11  1  0
 11 12  1  0
 12 13  1  0
 13 14  1  0
 14 15  1  1
 15 16  1  0
 16 17  1  0
 17 18  2  0
 17 19  1  0
 20 19  1  0
 20 21  1  0
 20 22  1  0
 20 23  1  0
 16 24  1  0
 10 25  1  0
 14 25  1  0
 25 24  1  1
  7 26  1  0
  4 27  1  0
 26 27  1  0
M  END
