piperidine-amides-24190-covalent
     RDKit          3D

 24 25  0  0  0  0  0  0  0  0999 V2000
    7.1290   -3.2450   19.2140 C   0  0  0  0  0  0  0  0  0  0  0  0
    6.3570   -4.0230   20.2010 C   0  0  0  0  0  0  0  0  0  0  0  0
    5.2800   -4.5630   19.8810 O   0  0  0  0  0  0  0  0  0  0  0  0
    6.8430   -4.2110   21.4960 N   0  0  0  0  0  0  0  0  0  0  0  0
    7.7040   -3.2120   22.0980 C   0  0  0  0  0  0  0  0  0  0  0  0
    6.9700   -2.6920   23.3250 C   0  0  0  0  0  0  0  0  0  0  0  0
    6.7650   -3.8970   24.2040 C   0  0  0  0  0  0  0  0  0  0  0  0
    6.1400   -3.5060   25.4710 C   0  0  0  0  0  0  0  0  0  0  0  0
    4.9030   -3.2950   25.5030 O   0  0  0  0  0  0  0  0  0  0  0  0
    6.9760   -3.3830   26.6060 N   0  0  0  0  0  0  0  0  0  0  0  0
    7.4700   -2.0880   26.9580 C   0  0  0  0  0  0  0  0  0  0  0  0
    6.3810   -1.0760   26.6760 C   0  0  0  0  0  0  0  0  0  0  0  0
    6.0240   -0.5450   25.4420 C   0  0  0  0  0  0  0  0  0  0  0  0
    5.0110    0.3780   25.2840 C   0  0  0  0  0  0  0  0  0  0  0  0
    4.2720    0.8450   26.3540 C   0  0  0  0  0  0  0  0  0  0  0  0
    4.5050    0.4200   27.6190 C   0  0  0  0  0  0  0  0  0  0  0  0
    3.6810    0.9850   28.5740 F   0  0  0  0  0  0  0  0  0  0  0  0
    5.5900   -0.5860   27.8830 C   0  0  0  0  0  0  0  0  0  0  0  0
    7.9380   -4.3880   27.0070 C   0  0  0  0  0  0  0  0  0  0  0  0
    7.4530   -5.7450   26.6550 C   0  0  0  0  0  0  0  0  0  0  0  0
    8.7890   -5.1800   26.0060 C   0  0  0  0  0  0  0  0  0  0  0  0
    8.2420   -4.5320   28.4010 C   0  0  0  0  0  0  0  0  0  0  0  0
    5.8130   -4.8600   23.5030 C   0  0  0  0  0  0  0  0  0  0  0  0
    6.4660   -5.3810   22.2510 C   0  0  0  0  0  0  0  0  0  0  0  0
  1  2  1  0
  2  3  2  0
  2  4  1  0
  4  5  1  0
  5  6  1  0
  6  7  1  0
  7  8  1  0
  8  9  2  0
  8 10  1  0
 10 11  1  0
 11 12  1  0
 12 13  2  0
 13 14  1  0
 14 15  2  0
 15 16  1  0
 16 17  1  0
 12 18  1  0
 16 18  2  0
 19 10  1  0
 19 20  1  0
 19 21  1  0
 19 22  1  0
  7 23  1  0
  4 24  1  0
 23 24  1  0
M  END
