piperidine-amides-25517-covalent
     RDKit          3D

 24 26  0  0  0  0  0  0  0  0999 V2000
    7.0450   -3.3720   19.4160 C   0  0  0  0  0  0  0  0  0  0  0  0
    6.3710   -4.2200   20.4290 C   0  0  0  0  0  0  0  0  0  0  0  0
    5.4270   -4.8980   20.0100 O   0  0  0  0  0  0  0  0  0  0  0  0
    6.8300   -4.2660   21.7670 N   0  0  0  0  0  0  0  0  0  0  0  0
    6.6030   -5.4210   22.6120 C   0  0  0  0  0  0  0  0  0  0  0  0
    5.8860   -4.9960   23.8750 C   0  0  0  0  0  0  0  0  0  0  0  0
    5.8260   -3.4720   23.8900 C   0  0  0  0  0  0  0  0  0  0  0  0
    4.9480   -2.9900   25.0120 C   0  0  0  0  0  0  0  0  0  0  0  0
    3.7400   -2.9410   24.7800 O   0  0  0  0  0  0  0  0  0  0  0  0
    5.3530   -2.6030   26.3130 N   0  0  0  0  0  0  0  0  0  0  0  0
    6.3780   -3.3030   26.9130 C   0  0  0  0  0  0  0  0  0  0  0  0
    5.8640   -4.6500   27.4200 C   0  0  0  0  0  0  0  0  0  0  0  0
    5.0410   -5.5830   26.8470 C   0  0  0  0  0  0  0  0  0  0  0  0
    4.7720   -6.7100   27.5640 C   0  0  0  0  0  0  0  0  0  0  0  0
    5.5890   -6.6310   29.0620 S   0  0  0  0  0  0  0  0  0  0  0  0
    6.3010   -5.1180   28.7840 C   0  0  0  0  0  0  0  0  0  0  0  0
    5.7810   -1.3930   27.0010 C   0  0  0  0  0  0  0  0  0  0  0  0
    6.5700   -1.7620   28.2410 C   0  0  0  0  0  0  0  0  0  0  0  0
    7.0320   -0.6000   29.0250 C   0  0  0  0  0  0  0  0  0  0  0  0
    6.6490    0.7020   28.4740 C   0  0  0  0  0  0  0  0  0  0  0  0
    5.9090    0.7980   27.2850 N   0  0  0  0  0  0  0  0  0  0  0  0
    5.3420   -0.1220   26.3370 C   0  0  0  0  0  0  0  0  0  0  0  0
    7.1250   -2.8140   23.6580 C   0  0  0  0  0  0  0  0  0  0  0  0
    7.6750   -3.2050   22.3190 C   0  0  0  0  0  0  0  0  0  0  0  0
  1  2  1  0
  2  3  2  0
  2  4  1  0
  4  5  1  0
  5  6  1  0
  6  7  1  0
  7  8  1  0
  8  9  2  0
  8 10  1  0
 10 11  1  0
 11 12  1  0
 12 13  1  0
 13 14  2  0
 14 15  1  0
 12 16  2  0
 15 16  1  0
 10 17  1  0
 17 18  2  0
 18 19  1  0
 19 20  2  0
 20 21  1  0
 17 22  1  0
 21 22  2  0
  7 23  1  0
  4 24  1  0
 23 24  1  0
M  END
