piperidine-amides-6736-covalent
     RDKit          3D

 23 24  0  0  0  0  0  0  0  0999 V2000
    7.1030   -3.2790   19.2660 C   0  0  0  0  0  0  0  0  0  0  0  0
    6.3760   -4.0860   20.2580 C   0  0  0  0  0  0  0  0  0  0  0  0
    5.3310   -4.6920   19.9360 O   0  0  0  0  0  0  0  0  0  0  0  0
    6.8670   -4.2350   21.5650 N   0  0  0  0  0  0  0  0  0  0  0  0
    7.6920   -3.1990   22.1520 C   0  0  0  0  0  0  0  0  0  0  0  0
    6.9190   -2.6550   23.3520 C   0  0  0  0  0  0  0  0  0  0  0  0
    6.5280   -3.8600   24.1770 C   0  0  0  0  0  0  0  0  0  0  0  0
    5.7870   -3.4340   25.3810 C   0  0  0  0  0  0  0  0  0  0  0  0
    4.5470   -3.2850   25.3010 O   0  0  0  0  0  0  0  0  0  0  0  0
    6.4930   -3.1880   26.5820 N   0  0  0  0  0  0  0  0  0  0  0  0
    6.1130   -3.7990   27.8350 C   0  0  0  0  0  0  0  0  0  0  0  0
    6.1540   -5.3230   27.7570 C   0  0  0  0  0  0  0  0  0  0  0  0
    5.2620   -6.0850   28.4440 C   0  0  0  0  0  0  0  0  0  0  0  0
    5.4000   -6.3850   29.7320 C   0  0  0  0  0  0  0  0  0  0  0  0
    4.4450   -7.1530   30.3180 C   0  0  0  0  0  0  0  0  0  0  0  0
    4.6600   -7.5550   32.1720 Br  0  0  0  0  0  0  0  0  0  0  0  0
    3.3700   -7.6110   29.5890 C   0  0  0  0  0  0  0  0  0  0  0  0
    2.9840   -7.4130   28.1010 C   0  0  0  0  0  0  0  0  0  0  0  0
    4.1970   -6.5410   27.7340 C   0  0  0  0  0  0  0  0  0  0  0  0
    4.0150   -6.1530   26.0760 S   0  0  0  0  0  0  0  0  0  0  0  0
    3.3880   -7.6120   25.4540 C   0  0  0  0  0  0  0  0  0  0  0  0
    5.6850   -4.8260   23.3760 C   0  0  0  0  0  0  0  0  0  0  0  0
    6.5000   -5.3690   22.3720 C   0  0  0  0  0  0  0  0  0  0  0  0
  1  2  1  0
  2  3  2  0
  2  4  1  0
  4  5  1  0
  5  6  1  0
  6  7  1  0
  7  8  1  0
  8  9  2  0
  8 10  1  0
 10 11  1  0
 11 12  1  0
 12 13  1  0
 13 14  2  0
 14 15  1  0
 15 16  1  0
 15 17  2  0
 17 18  1  0
 13 19  1  0
 18 19  2  0
 19 20  1  0
 20 21  1  0
  7 22  1  0
  4 23  1  0
 22 23  1  0
M  END
