piperidine-amides-1301-covalent
     RDKit          3D

 22 24  0  0  0  0  0  0  0  0999 V2000
    7.0970   -3.2750   19.2700 C   0  0  0  0  0  0  0  0  0  0  0  0
    6.3370   -4.0740   20.2720 C   0  0  0  0  0  0  0  0  0  0  0  0
    5.2830   -4.6200   19.9120 O   0  0  0  0  0  0  0  0  0  0  0  0
    6.8490   -4.2380   21.5830 N   0  0  0  0  0  0  0  0  0  0  0  0
    6.5960   -5.4350   22.3400 C   0  0  0  0  0  0  0  0  0  0  0  0
    5.8040   -5.0050   23.5790 C   0  0  0  0  0  0  0  0  0  0  0  0
    6.4750   -3.8070   24.1710 C   0  0  0  0  0  0  0  0  0  0  0  0
    5.6850   -3.2440   25.3000 C   0  0  0  0  0  0  0  0  0  0  0  0
    4.5450   -2.8650   25.0140 O   0  0  0  0  0  0  0  0  0  0  0  0
    6.2040   -3.1600   26.6010 N   0  0  0  0  0  0  0  0  0  0  0  0
    6.1760   -4.1770   27.5990 C   0  0  0  0  0  0  0  0  0  0  0  0
    5.1240   -4.5170   28.4000 C   0  0  0  0  0  0  0  0  0  0  0  0
    5.0870   -5.7220   29.1250 C   0  0  0  0  0  0  0  0  0  0  0  0
    4.0630   -6.0960   29.9300 C   0  0  0  0  0  0  0  0  0  0  0  0
    4.1090   -7.3870   30.6610 C   0  0  0  0  0  0  0  0  0  0  0  0
    3.2040   -7.6930   31.6660 C   0  0  0  0  0  0  0  0  0  0  0  0
    4.7540   -7.3610   31.9280 C   0  0  0  0  0  0  0  0  0  0  0  0
    3.0320   -5.2590   30.0300 C   0  0  0  0  0  0  0  0  0  0  0  0
    3.0580   -3.9910   29.2730 C   0  0  0  0  0  0  0  0  0  0  0  0
    4.0840   -3.4680   28.3820 N   0  0  0  0  0  0  0  0  0  0  0  0
    6.7780   -2.7000   23.2060 C   0  0  0  0  0  0  0  0  0  0  0  0
    7.6050   -3.2080   22.2380 C   0  0  0  0  0  0  0  0  0  0  0  0
  1  2  1  0
  2  3  2  0
  2  4  1  0
  4  5  1  0
  5  6  1  0
  6  7  1  0
  7  8  1  0
  8  9  2  0
  8 10  1  0
 10 11  1  0
 11 12  1  0
 12 13  2  0
 13 14  1  0
 14 15  1  0
 15 16  1  0
 15 17  1  0
 16 17  1  0
 14 18  2  0
 18 19  1  0
 12 20  1  0
 19 20  2  0
  7 21  1  0
  4 22  1  0
 21 22  1  0
M  END
