piperidine-amides-3946-covalent
     RDKit          3D

 19 19  0  0  0  0  0  0  0  0999 V2000
    7.1100   -3.3040   19.2290 C   0  0  0  0  0  0  0  0  0  0  0  0
    6.3130   -4.0340   20.2260 C   0  0  0  0  0  0  0  0  0  0  0  0
    5.2140   -4.4950   19.8540 O   0  0  0  0  0  0  0  0  0  0  0  0
    6.8010   -4.2520   21.5340 N   0  0  0  0  0  0  0  0  0  0  0  0
    7.5510   -3.2190   22.1330 C   0  0  0  0  0  0  0  0  0  0  0  0
    7.2550   -3.1330   23.5310 C   0  0  0  0  0  0  0  0  0  0  0  0
    5.9200   -3.6320   23.8600 C   0  0  0  0  0  0  0  0  0  0  0  0
    5.6080   -3.3620   25.2930 C   0  0  0  0  0  0  0  0  0  0  0  0
    4.4660   -2.9770   25.6060 O   0  0  0  0  0  0  0  0  0  0  0  0
    6.5770   -3.5290   26.2950 N   0  0  0  0  0  0  0  0  0  0  0  0
    6.3980   -3.9040   27.6470 C   0  0  0  0  0  0  0  0  0  0  0  0
    6.5190   -5.2800   28.1070 C   0  0  2  0  0  0  0  0  0  0  0  0
    7.7240   -5.8290   27.3450 C   0  0  0  0  0  0  0  0  0  0  0  0
    5.4230   -6.2100   27.8050 C   0  0  0  0  0  0  0  0  0  0  0  0
    4.1470   -5.8420   28.1900 O   0  0  0  0  0  0  0  0  0  0  0  0
    6.6480   -5.5040   29.4800 O   0  0  0  0  0  0  0  0  0  0  0  0
    6.0310   -6.7520   29.7900 C   0  0  0  0  0  0  0  0  0  0  0  0
    5.6690   -5.0680   23.5230 C   0  0  0  0  0  0  0  0  0  0  0  0
    6.4330   -5.4670   22.2350 C   0  0  0  0  0  0  0  0  0  0  0  0
  1  2  1  0
  2  3  2  0
  2  4  1  0
  4  5  1  0
  5  6  1  0
  6  7  1  0
  7  8  1  0
  8  9  2  0
  8 10  1  0
 10 11  1  0
 11 12  1  0
 12 13  1  6
 12 14  1  0
 14 15  1  0
 12 16  1  0
 16 17  1  0
  7 18  1  0
  4 19  1  0
 18 19  1  0
M  END
