piperidine-amides-14876-covalent
     RDKit          3D

 22 23  0  0  0  0  0  0  0  0999 V2000
    6.9950   -3.3530   19.3700 C   0  0  0  0  0  0  0  0  0  0  0  0
    6.3400   -4.2110   20.3630 C   0  0  0  0  0  0  0  0  0  0  0  0
    5.3880   -4.9150   19.9890 O   0  0  0  0  0  0  0  0  0  0  0  0
    6.8050   -4.2590   21.7020 N   0  0  0  0  0  0  0  0  0  0  0  0
    7.7010   -3.2220   22.1590 C   0  0  0  0  0  0  0  0  0  0  0  0
    7.5490   -3.0580   23.6280 C   0  0  0  0  0  0  0  0  0  0  0  0
    6.1890   -3.6260   23.9210 C   0  0  0  0  0  0  0  0  0  0  0  0
    5.8180   -3.2890   25.3320 C   0  0  0  0  0  0  0  0  0  0  0  0
    4.7020   -3.6180   25.7260 O   0  0  0  0  0  0  0  0  0  0  0  0
    6.7980   -2.6160   26.0510 N   0  0  0  0  0  0  0  0  0  0  0  0
    6.5910   -1.5250   26.9470 C   0  0  0  0  0  0  0  0  0  0  0  0
    6.9260   -1.5920   28.3050 C   0  0  0  0  0  0  0  0  0  0  0  0
    6.7420   -0.5330   29.1770 C   0  0  0  0  0  0  0  0  0  0  0  0
    7.0980   -0.6850   30.4830 F   0  0  0  0  0  0  0  0  0  0  0  0
    6.2060    0.7170   28.8290 C   0  0  0  0  0  0  0  0  0  0  0  0
    5.8260    0.8440   27.3840 C   0  0  0  0  0  0  0  0  0  0  0  0
    6.0240   -0.3120   26.4060 C   0  0  0  0  0  0  0  0  0  0  0  0
    5.6530   -0.0050   25.2400 O   0  0  0  0  0  0  0  0  0  0  0  0
    4.7950   -0.8490   24.6020 C   0  0  0  0  0  0  0  0  0  0  0  0
    5.2110   -1.0850   23.1750 C   0  0  0  0  0  0  0  0  0  0  0  0
    6.0560   -5.0700   23.6910 C   0  0  0  0  0  0  0  0  0  0  0  0
    6.6730   -5.4590   22.5140 C   0  0  0  0  0  0  0  0  0  0  0  0
  1  2  1  0
  2  3  2  0
  2  4  1  0
  4  5  1  0
  5  6  1  0
  6  7  1  0
  7  8  1  0
  8  9  2  0
  8 10  1  0
 10 11  1  0
 11 12  2  0
 12 13  1  0
 13 14  1  0
 13 15  2  0
 15 16  1  0
 11 17  1  0
 16 17  2  0
 17 18  1  0
 18 19  1  0
 19 20  1  0
  7 21  1  0
  4 22  1  0
 21 22  1  0
M  END
