piperidine-amides-5407-covalent
     RDKit          3D

 21 22  0  0  0  0  0  0  0  0999 V2000
    7.0710   -3.3030   19.3100 C   0  0  0  0  0  0  0  0  0  0  0  0
    6.3650   -4.0870   20.3330 C   0  0  0  0  0  0  0  0  0  0  0  0
    5.3930   -4.7770   19.9710 O   0  0  0  0  0  0  0  0  0  0  0  0
    6.7670   -4.1210   21.6890 N   0  0  0  0  0  0  0  0  0  0  0  0
    6.6370   -5.3400   22.4610 C   0  0  0  0  0  0  0  0  0  0  0  0
    6.1540   -4.9670   23.8450 C   0  0  0  0  0  0  0  0  0  0  0  0
    6.2330   -3.4900   24.0990 C   0  0  0  0  0  0  0  0  0  0  0  0
    5.8730   -2.9980   25.4770 C   0  0  0  0  0  0  0  0  0  0  0  0
    5.1870   -1.9400   25.5640 O   0  0  0  0  0  0  0  0  0  0  0  0
    6.1770   -3.6200   26.7290 N   0  0  0  0  0  0  0  0  0  0  0  0
    5.2250   -4.6800   27.1120 C   0  0  1  0  0  0  0  0  0  0  0  0
    5.6470   -5.7980   26.3260 C   0  0  0  0  0  0  0  0  0  0  0  0
    5.1990   -5.4040   28.4690 C   0  0  0  0  0  0  0  0  0  0  0  0
    3.8880   -5.0590   29.1120 C   0  0  0  0  0  0  0  0  0  0  0  0
    3.6280   -5.7060   30.4640 C   0  0  0  0  0  0  0  0  0  0  0  0
    4.7140   -6.6040   30.9730 C   0  0  0  0  0  0  0  0  0  0  0  0
    4.4740   -7.4610   32.6630 Br  0  0  0  0  0  0  0  0  0  0  0  0
    5.8700   -6.8210   30.2600 C   0  0  0  0  0  0  0  0  0  0  0  0
    6.1300   -6.2350   29.0200 C   0  0  0  0  0  0  0  0  0  0  0  0
    7.5870   -2.9330   23.6770 C   0  0  0  0  0  0  0  0  0  0  0  0
    7.6910   -3.0810   22.1490 C   0  0  0  0  0  0  0  0  0  0  0  0
  1  2  1  0
  2  3  2  0
  2  4  1  0
  4  5  1  0
  5  6  1  0
  6  7  1  0
  7  8  1  0
  8  9  2  0
  8 10  1  0
 10 11  1  0
 11 12  1  6
 11 13  1  0
 13 14  2  0
 14 15  1  0
 15 16  2  0
 16 17  1  0
 16 18  1  0
 13 19  1  0
 18 19  2  0
  7 20  1  0
  4 21  1  0
 20 21  1  0
M  END
