piperidine-amides-16-covalent
     RDKit          3D

 24 26  0  0  0  0  0  0  0  0999 V2000
    7.2110   -3.2730   19.3220 C   0  0  0  0  0  0  0  0  0  0  0  0
    6.3770   -3.9660   20.2790 C   0  0  0  0  0  0  0  0  0  0  0  0
    5.3140   -4.5350   19.8760 O   0  0  0  0  0  0  0  0  0  0  0  0
    6.7140   -4.0620   21.6380 N   0  0  0  0  0  0  0  0  0  0  0  0
    7.8710   -3.2740   22.1220 C   0  0  0  0  0  0  0  0  0  0  0  0
    7.2080   -2.5710   23.3450 C   0  0  0  0  0  0  0  0  0  0  0  0
    6.7770   -3.6920   24.2570 C   0  0  0  0  0  0  0  0  0  0  0  0
    5.4470   -3.2920   25.0030 C   0  0  0  0  0  0  0  0  0  0  0  0
    4.4620   -3.6970   24.4090 O   0  0  0  0  0  0  0  0  0  0  0  0
    5.7460   -2.6480   26.0440 N   0  0  0  0  0  0  0  0  0  0  0  0
    5.9130   -1.9660   27.1900 C   0  0  2  0  0  0  0  0  0  0  0  0
    6.8730   -1.7090   28.1550 C   0  0  0  0  0  0  0  0  0  0  0  0
    6.1890   -2.1780   29.2010 C   0  0  0  0  0  0  0  0  0  0  0  0
    5.0060   -2.4280   28.4220 C   0  0  2  0  0  0  0  0  0  0  0  0
    4.9180   -3.9020   28.8850 C   0  0  0  0  0  0  0  0  0  0  0  0
    6.1570   -4.4700   28.5190 C   0  0  0  0  0  0  0  0  0  0  0  0
    6.7090   -5.8020   28.6730 C   0  0  0  0  0  0  0  0  0  0  0  0
    5.4850   -6.4800   29.3960 C   0  0  0  0  0  0  0  0  0  0  0  0
    5.6740   -7.7720   29.7000 F   0  0  0  0  0  0  0  0  0  0  0  0
    4.1190   -5.8340   29.7870 C   0  0  0  0  0  0  0  0  0  0  0  0
    3.8930   -4.5620   29.5120 C   0  0  0  0  0  0  0  0  0  0  0  0
    2.6940   -3.9270   29.8340 F   0  0  0  0  0  0  0  0  0  0  0  0
    6.7130   -5.1090   23.6820 C   0  0  0  0  0  0  0  0  0  0  0  0
    6.2740   -5.1890   22.4000 C   0  0  0  0  0  0  0  0  0  0  0  0
  1  2  1  0
  2  3  2  0
  2  4  1  0
  4  5  1  0
  5  6  1  0
  6  7  1  0
  7  8  1  0
  8  9  2  0
  8 10  1  0
 11 10  1  6
 11 12  1  0
 12 13  1  0
 11 14  1  0
 13 14  1  0
 14 15  1  6
 15 16  2  0
 16 17  1  0
 17 18  2  0
 18 19  1  0
 18 20  1  0
 15 21  1  0
 20 21  2  0
 21 22  1  0
  7 23  1  0
  4 24  1  0
 23 24  1  0
M  END
