piperidine-amides-1859-covalent
     RDKit          3D

 18 19  0  0  0  0  0  0  0  0999 V2000
    7.1040   -3.2790   19.2050 C   0  0  0  0  0  0  0  0  0  0  0  0
    6.3680   -4.0590   20.2370 C   0  0  0  0  0  0  0  0  0  0  0  0
    5.3010   -4.5580   19.8910 O   0  0  0  0  0  0  0  0  0  0  0  0
    6.9080   -4.2520   21.5150 N   0  0  0  0  0  0  0  0  0  0  0  0
    6.5090   -5.3790   22.3050 C   0  0  0  0  0  0  0  0  0  0  0  0
    5.7690   -4.8700   23.5120 C   0  0  0  0  0  0  0  0  0  0  0  0
    6.5610   -3.7380   24.1840 C   0  0  0  0  0  0  0  0  0  0  0  0
    5.8120   -3.3210   25.3810 C   0  0  0  0  0  0  0  0  0  0  0  0
    4.5740   -3.2690   25.3440 O   0  0  0  0  0  0  0  0  0  0  0  0
    6.4870   -2.9760   26.5660 N   0  0  0  0  0  0  0  0  0  0  0  0
    6.2100   -3.7280   27.7670 C   0  0  0  0  0  0  0  0  0  0  0  0
    5.7650   -5.1180   27.3660 C   0  0  0  0  0  0  0  0  0  0  0  0
    5.8610   -6.1810   28.2080 C   0  0  0  0  0  0  0  0  0  0  0  0
    4.9390   -7.1470   28.0120 C   0  0  0  0  0  0  0  0  0  0  0  0
    7.0110   -6.5240   29.0090 N   0  0  0  0  0  0  0  0  0  0  0  0
    6.0860   -6.1160   29.5980 N   0  0  0  0  0  0  0  0  0  0  0  0
    6.7890   -2.5960   23.1890 C   0  0  0  0  0  0  0  0  0  0  0  0
    7.6500   -3.1470   22.0830 C   0  0  0  0  0  0  0  0  0  0  0  0
  1  2  1  0
  2  3  2  0
  2  4  1  0
  4  5  1  0
  5  6  1  0
  6  7  1  0
  7  8  1  0
  8  9  2  0
  8 10  1  0
 10 11  1  0
 11 12  1  0
 13 12  1  0
 13 14  1  0
 13 15  1  0
 13 16  1  0
 15 16  2  0
  7 17  1  0
  4 18  1  0
 17 18  1  0
M  END
