piperidine-amides-3427-covalent
     RDKit          3D

 21 21  0  0  0  0  0  0  0  0999 V2000
    7.1340   -3.2580   19.2220 C   0  0  0  0  0  0  0  0  0  0  0  0
    6.3680   -4.0090   20.2130 C   0  0  0  0  0  0  0  0  0  0  0  0
    5.3130   -4.5580   19.8920 O   0  0  0  0  0  0  0  0  0  0  0  0
    6.8660   -4.1550   21.5520 N   0  0  0  0  0  0  0  0  0  0  0  0
    6.5440   -5.3630   22.2600 C   0  0  0  0  0  0  0  0  0  0  0  0
    6.1620   -5.0270   23.6740 C   0  0  0  0  0  0  0  0  0  0  0  0
    6.2050   -3.5100   23.8290 C   0  0  0  0  0  0  0  0  0  0  0  0
    5.6430   -3.1190   25.1460 C   0  0  0  0  0  0  0  0  0  0  0  0
    4.5490   -2.5330   25.2500 O   0  0  0  0  0  0  0  0  0  0  0  0
    6.3570   -3.4200   26.3180 N   0  0  0  0  0  0  0  0  0  0  0  0
    5.6740   -4.2070   27.3100 C   0  0  2  0  0  0  0  0  0  0  0  0
    6.4690   -4.2140   28.5650 C   0  0  0  0  0  0  0  0  0  0  0  0
    6.8430   -5.4390   29.0560 C   0  0  0  0  0  0  0  0  0  0  0  0
    5.4740   -5.6100   26.9320 C   0  0  1  0  0  0  0  0  0  0  0  0
    6.6520   -6.3550   26.8550 O   0  0  0  0  0  0  0  0  0  0  0  0
    4.4280   -6.2650   27.5570 C   0  0  0  0  0  0  0  0  0  0  0  0
    3.5240   -5.3250   27.9910 F   0  0  0  0  0  0  0  0  0  0  0  0
    3.7650   -7.0820   26.6110 F   0  0  0  0  0  0  0  0  0  0  0  0
    4.8290   -7.0280   28.6070 F   0  0  0  0  0  0  0  0  0  0  0  0
    7.5800   -3.1340   23.4860 C   0  0  0  0  0  0  0  0  0  0  0  0
    7.6390   -3.1080   22.1160 C   0  0  0  0  0  0  0  0  0  0  0  0
  1  2  1  0
  2  3  2  0
  2  4  1  0
  4  5  1  0
  5  6  1  0
  6  7  1  0
  7  8  1  0
  8  9  2  0
  8 10  1  0
 10 11  1  0
 11 12  1  1
 12 13  1  0
 11 14  1  0
 14 15  1  1
 14 16  1  0
 16 17  1  0
 16 18  1  0
 16 19  1  0
  7 20  1  0
  4 21  1  0
 20 21  1  0
M  END
