piperidine-amides-4320-covalent
     RDKit          3D

 26 27  0  0  0  0  0  0  0  0999 V2000
    7.1280   -3.3380   19.2630 C   0  0  0  0  0  0  0  0  0  0  0  0
    6.3810   -4.1030   20.2670 C   0  0  0  0  0  0  0  0  0  0  0  0
    5.2850   -4.5940   19.9080 O   0  0  0  0  0  0  0  0  0  0  0  0
    6.9230   -4.3300   21.5540 N   0  0  0  0  0  0  0  0  0  0  0  0
    7.6110   -3.2500   22.1740 C   0  0  0  0  0  0  0  0  0  0  0  0
    7.1870   -2.9170   23.5280 C   0  0  0  0  0  0  0  0  0  0  0  0
    6.4420   -3.9550   24.2700 C   0  0  0  0  0  0  0  0  0  0  0  0
    5.7390   -3.3600   25.4520 C   0  0  0  0  0  0  0  0  0  0  0  0
    4.4930   -3.3580   25.4880 O   0  0  0  0  0  0  0  0  0  0  0  0
    6.4620   -2.7890   26.5200 N   0  0  0  0  0  0  0  0  0  0  0  0
    6.3040   -1.5180   27.1400 C   0  0  0  0  0  0  0  0  0  0  0  0
    6.5700   -1.4000   28.5750 C   0  0  0  0  0  0  0  0  0  0  0  0
    6.3740   -0.0220   29.2270 C   0  0  0  0  0  0  0  0  0  0  0  0
    6.0210    1.0080   28.3950 C   0  0  0  0  0  0  0  0  0  0  0  0
    5.9460    2.1050   29.4680 C   0  0  0  0  0  0  0  0  0  0  0  0
    5.5300    3.2870   28.8610 F   0  0  0  0  0  0  0  0  0  0  0  0
    7.1550    2.2500   30.1300 F   0  0  0  0  0  0  0  0  0  0  0  0
    5.0480    1.7650   30.4330 F   0  0  0  0  0  0  0  0  0  0  0  0
    5.8310    0.8800   27.0140 N   0  0  0  0  0  0  0  0  0  0  0  0
    4.6370    1.6710   26.6560 C   0  0  0  0  0  0  0  0  0  0  0  0
    5.2810    2.0150   25.3030 C   0  0  0  0  0  0  0  0  0  0  0  0
    4.3820    1.8490   24.0990 C   0  0  0  0  0  0  0  0  0  0  0  0
    5.8990   -0.3580   26.4890 C   0  0  0  0  0  0  0  0  0  0  0  0
    5.5520   -0.4840   25.2900 O   0  0  0  0  0  0  0  0  0  0  0  0
    5.4650   -4.7240   23.3800 C   0  0  0  0  0  0  0  0  0  0  0  0
    6.2870   -5.3900   22.3400 C   0  0  0  0  0  0  0  0  0  0  0  0
  1  2  1  0
  2  3  2  0
  2  4  1  0
  4  5  1  0
  5  6  1  0
  6  7  1  0
  7  8  1  0
  8  9  2  0
  8 10  1  0
 10 11  1  0
 11 12  2  0
 12 13  1  0
 13 14  2  0
 14 15  1  0
 15 16  1  0
 15 17  1  0
 15 18  1  0
 14 19  1  0
 19 20  1  0
 20 21  1  0
 21 22  1  0
 11 23  1  0
 19 23  1  0
 23 24  2  0
  7 25  1  0
  4 26  1  0
 25 26  1  0
M  END
