piperidine-amides-30470-covalent
     RDKit          3D

 27 29  0  0  0  0  0  0  0  0999 V2000
    7.0430   -3.4020   19.4460 C   0  0  0  0  0  0  0  0  0  0  0  0
    6.3560   -4.2490   20.4230 C   0  0  0  0  0  0  0  0  0  0  0  0
    5.4230   -4.9640   20.0160 O   0  0  0  0  0  0  0  0  0  0  0  0
    6.7610   -4.2980   21.7790 N   0  0  0  0  0  0  0  0  0  0  0  0
    7.6500   -3.2770   22.3230 C   0  0  0  0  0  0  0  0  0  0  0  0
    7.3210   -3.1090   23.7840 C   0  0  0  0  0  0  0  0  0  0  0  0
    6.0050   -3.7460   24.1100 C   0  0  0  0  0  0  0  0  0  0  0  0
    5.3200   -3.2130   25.3420 C   0  0  0  0  0  0  0  0  0  0  0  0
    4.6170   -2.1780   25.2030 O   0  0  0  0  0  0  0  0  0  0  0  0
    5.3220   -3.7160   26.6850 N   0  0  0  0  0  0  0  0  0  0  0  0
    6.4620   -3.4450   27.4920 C   0  0  0  0  0  0  0  0  0  0  0  0
    6.6320   -4.6500   28.3530 C   0  0  0  0  0  0  0  0  0  0  0  0
    5.4460   -4.9810   29.1250 C   0  0  0  0  0  0  0  0  0  0  0  0
    5.5270   -6.3680   29.7350 C   0  0  0  0  0  0  0  0  0  0  0  0
    4.8610   -6.2680   31.1020 C   0  0  0  0  0  0  0  0  0  0  0  0
    3.7670   -7.2510   31.3210 C   0  0  0  0  0  0  0  0  0  0  0  0
    3.7690   -7.9210   32.5410 C   0  0  0  0  0  0  0  0  0  0  0  0
    2.8480   -8.8610   32.9650 C   0  0  0  0  0  0  0  0  0  0  0  0
    1.7520   -9.1850   32.0320 C   0  0  0  0  0  0  0  0  0  0  0  0
    0.7980  -10.0970   32.3640 F   0  0  0  0  0  0  0  0  0  0  0  0
    1.7200   -8.4760   30.6950 C   0  0  0  0  0  0  0  0  0  0  0  0
    2.7290   -7.4360   30.2100 C   0  0  0  0  0  0  0  0  0  0  0  0
    2.6680   -6.8300   29.0350 F   0  0  0  0  0  0  0  0  0  0  0  0
    4.2200   -4.7940   28.4850 C   0  0  0  0  0  0  0  0  0  0  0  0
    4.2500   -3.6050   27.5830 C   0  0  0  0  0  0  0  0  0  0  0  0
    6.0710   -5.2440   23.9250 C   0  0  0  0  0  0  0  0  0  0  0  0
    6.5870   -5.5370   22.5050 C   0  0  0  0  0  0  0  0  0  0  0  0
  1  2  1  0
  2  3  2  0
  2  4  1  0
  4  5  1  0
  5  6  1  0
  6  7  1  0
  7  8  1  0
  8  9  2  0
  8 10  1  0
 10 11  1  0
 11 12  1  0
 12 13  1  0
 13 14  1  0
 14 15  1  0
 15 16  1  0
 16 17  2  0
 17 18  1  0
 18 19  2  0
 19 20  1  0
 19 21  1  0
 16 22  1  0
 21 22  2  0
 22 23  1  0
 13 24  1  0
 10 25  1  0
 24 25  1  0
  7 26  1  0
  4 27  1  0
 26 27  1  0
M  END
