piperidine-amides-13282-covalent
     RDKit          3D

 25 26  0  0  0  0  0  0  0  0999 V2000
    7.1080   -3.2660   19.1650 C   0  0  0  0  0  0  0  0  0  0  0  0
    6.3500   -4.0120   20.1960 C   0  0  0  0  0  0  0  0  0  0  0  0
    5.2490   -4.4710   19.8490 O   0  0  0  0  0  0  0  0  0  0  0  0
    6.8770   -4.2420   21.4720 N   0  0  0  0  0  0  0  0  0  0  0  0
    7.5810   -3.1970   22.1420 C   0  0  0  0  0  0  0  0  0  0  0  0
    7.0870   -2.8820   23.4840 C   0  0  0  0  0  0  0  0  0  0  0  0
    6.4220   -3.9950   24.1990 C   0  0  0  0  0  0  0  0  0  0  0  0
    5.6990   -3.4900   25.4020 C   0  0  0  0  0  0  0  0  0  0  0  0
    4.4550   -3.6070   25.4680 O   0  0  0  0  0  0  0  0  0  0  0  0
    6.3990   -2.8770   26.4620 N   0  0  0  0  0  0  0  0  0  0  0  0
    6.3570   -1.4170   26.7450 C   0  0  0  0  0  0  0  0  0  0  0  0
    5.7640   -0.5980   25.6330 C   0  0  0  0  0  0  0  0  0  0  0  0
    6.3100    0.0410   24.4710 N   0  0  0  0  0  0  0  0  0  0  0  0
    5.3350    0.6340   23.8280 N   0  0  0  0  0  0  0  0  0  0  0  0
    3.9950    0.5760   24.3150 C   0  0  0  0  0  0  0  0  0  0  0  0
    2.8100    1.1050   23.8310 C   0  0  0  0  0  0  0  0  0  0  0  0
    2.7920    1.2690   22.4550 C   0  0  0  0  0  0  0  0  0  0  0  0
    1.5620    1.7350   22.0770 C   0  0  0  0  0  0  0  0  0  0  0  0
    1.1500    2.9500   22.6570 O   0  0  0  0  0  0  0  0  0  0  0  0
    0.7720    1.0180   21.1570 O   0  0  0  0  0  0  0  0  0  0  0  0
   -0.3820    1.7450   20.8960 C   0  0  0  0  0  0  0  0  0  0  0  0
   -1.4330    0.8770   20.9450 C   0  0  0  0  0  0  0  0  0  0  0  0
    3.9840   -0.3350   25.7490 S   0  0  0  0  0  0  0  0  0  0  0  0
    5.5580   -4.8040   23.2790 C   0  0  0  0  0  0  0  0  0  0  0  0
    6.4630   -5.3740   22.2640 C   0  0  0  0  0  0  0  0  0  0  0  0
  1  2  1  0
  2  3  2  0
  2  4  1  0
  4  5  1  0
  5  6  1  0
  6  7  1  0
  7  8  1  0
  8  9  2  0
  8 10  1  0
 10 11  1  0
 11 12  1  0
 12 13  2  0
 13 14  1  0
 14 15  2  0
 15 16  1  0
 16 17  1  0
 17 18  1  0
 18 19  2  0
 18 20  1  0
 20 21  1  0
 21 22  1  0
 12 23  1  0
 15 23  1  0
  7 24  1  0
  4 25  1  0
 24 25  1  0
M  END
