piperidine-amides-10331-covalent
     RDKit          3D

 24 25  0  0  0  0  0  0  0  0999 V2000
    7.0660   -3.3340   19.2880 C   0  0  0  0  0  0  0  0  0  0  0  0
    6.3350   -4.1910   20.2310 C   0  0  0  0  0  0  0  0  0  0  0  0
    5.2000   -4.5720   19.8710 O   0  0  0  0  0  0  0  0  0  0  0  0
    6.9060   -4.6000   21.4360 N   0  0  0  0  0  0  0  0  0  0  0  0
    6.3380   -5.6910   22.1670 C   0  0  0  0  0  0  0  0  0  0  0  0
    5.6740   -5.1200   23.3960 C   0  0  0  0  0  0  0  0  0  0  0  0
    5.1680   -3.6980   23.2160 C   0  0  0  0  0  0  0  0  0  0  0  0
    4.7610   -3.1350   24.5110 C   0  0  0  0  0  0  0  0  0  0  0  0
    3.6290   -3.3350   24.9940 O   0  0  0  0  0  0  0  0  0  0  0  0
    5.6850   -2.4000   25.1930 N   0  0  0  0  0  0  0  0  0  0  0  0
    6.9300   -3.0440   25.1800 C   0  0  0  0  0  0  0  0  0  0  0  0
    8.0620   -2.3000   24.4880 C   0  0  0  0  0  0  0  0  0  0  0  0
    8.1090   -0.9730   24.1850 C   0  0  0  0  0  0  0  0  0  0  0  0
    9.2190   -0.3680   23.6240 C   0  0  0  0  0  0  0  0  0  0  0  0
   10.3320   -1.1090   23.3690 C   0  0  0  0  0  0  0  0  0  0  0  0
   11.7490   -0.5090   22.7320 S   0  0  0  0  0  0  0  0  0  0  0  0
   12.9530   -1.1620   23.3030 O   0  0  0  0  0  0  0  0  0  0  0  0
   11.7690    0.9430   22.4410 O   0  0  0  0  0  0  0  0  0  0  0  0
   11.0910   -1.4200   21.4990 C   0  0  0  0  0  0  0  0  0  0  0  0
   10.2140   -2.4170   21.7570 C   0  0  0  0  0  0  0  0  0  0  0  0
   10.3080   -2.4270   23.6140 C   0  0  0  0  0  0  0  0  0  0  0  0
    9.1370   -3.1440   24.1870 C   0  0  0  0  0  0  0  0  0  0  0  0
    6.2010   -2.7340   22.5850 C   0  0  0  0  0  0  0  0  0  0  0  0
    7.4210   -3.5690   22.2840 C   0  0  0  0  0  0  0  0  0  0  0  0
  1  2  1  0
  2  3  2  0
  2  4  1  0
  4  5  1  0
  5  6  1  0
  6  7  1  0
  7  8  1  0
  8  9  2  0
  8 10  1  0
 10 11  1  0
 11 12  1  0
 12 13  2  0
 13 14  1  0
 14 15  2  0
 15 16  1  0
 16 17  2  0
 16 18  2  0
 16 19  1  0
 19 20  1  0
 15 21  1  0
 12 22  1  0
 21 22  2  0
  7 23  1  0
  4 24  1  0
 23 24  1  0
M  END
