piperidine-amides-362-covalent
     RDKit          3D

 28 30  0  0  0  0  0  0  0  0999 V2000
    7.1080   -3.3120   19.4210 C   0  0  0  0  0  0  0  0  0  0  0  0
    6.3820   -4.1150   20.3870 C   0  0  0  0  0  0  0  0  0  0  0  0
    5.4000   -4.8120   19.9740 O   0  0  0  0  0  0  0  0  0  0  0  0
    6.7500   -4.1680   21.7540 N   0  0  0  0  0  0  0  0  0  0  0  0
    6.6600   -5.5100   22.4020 C   0  0  0  0  0  0  0  0  0  0  0  0
    5.9920   -5.2000   23.8150 C   0  0  0  0  0  0  0  0  0  0  0  0
    6.1700   -3.7280   24.0540 C   0  0  0  0  0  0  0  0  0  0  0  0
    5.5170   -3.1830   25.4090 C   0  0  0  0  0  0  0  0  0  0  0  0
    4.9040   -2.1520   25.1740 O   0  0  0  0  0  0  0  0  0  0  0  0
    5.7730   -3.9470   26.4070 N   0  0  0  0  0  0  0  0  0  0  0  0
    5.9740   -4.6970   27.5390 C   0  0  0  0  0  0  0  0  0  0  0  0
    6.3410   -5.9650   27.9070 C   0  0  0  0  0  0  0  0  0  0  0  0
    6.6750   -3.8170   28.5410 C   0  0  0  0  0  0  0  0  0  0  0  0
    4.8220   -5.2350   28.3740 C   0  0  0  0  0  0  0  0  0  0  0  0
    4.5170   -4.8730   29.6700 N   0  0  0  0  0  0  0  0  0  0  0  0
    3.3740   -5.5710   30.1860 C   0  0  0  0  0  0  0  0  0  0  0  0
    2.9740   -5.2790   31.4920 C   0  0  0  0  0  0  0  0  0  0  0  0
    2.8510   -3.8430   31.7010 C   0  0  0  0  0  0  0  0  0  0  0  0
    2.4130   -3.8500   33.1870 C   0  0  0  0  0  0  0  0  0  0  0  0
    2.1870   -5.0480   34.1260 C   0  0  0  0  0  0  0  0  0  0  0  0
    2.3940   -6.2350   33.5980 C   0  0  0  0  0  0  0  0  0  0  0  0
    2.7780   -6.3930   32.3210 C   0  0  0  0  0  0  0  0  0  0  0  0
    2.9810   -7.6320   31.8190 F   0  0  0  0  0  0  0  0  0  0  0  0
    2.7430   -6.5610   29.1880 C   0  0  0  0  0  0  0  0  0  0  0  0
    1.6440   -7.2520   29.6430 C   0  0  0  0  0  0  0  0  0  0  0  0
    3.7000   -6.4550   27.7390 S   0  0  0  0  0  0  0  0  0  0  0  0
    7.4830   -3.1180   23.7320 C   0  0  0  0  0  0  0  0  0  0  0  0
    7.6820   -3.1760   22.2530 C   0  0  0  0  0  0  0  0  0  0  0  0
  1  2  1  0
  2  3  2  0
  2  4  1  0
  4  5  1  0
  5  6  1  0
  6  7  1  0
  7  8  1  0
  8  9  2  0
  8 10  1  0
 11 10  1  0
 11 12  1  0
 11 13  1  0
 11 14  1  0
 14 15  2  0
 15 16  1  0
 16 17  1  0
 17 18  2  0
 18 19  1  0
 19 20  2  0
 20 21  1  0
 17 22  1  0
 21 22  2  0
 22 23  1  0
 16 24  2  0
 24 25  1  0
 14 26  1  0
 24 26  1  0
  7 27  1  0
  4 28  1  0
 27 28  1  0
M  END
