piperidine-amides-23834-covalent
     RDKit          3D

 24 26  0  0  0  0  0  0  0  0999 V2000
    7.0420   -3.3630   19.4000 C   0  0  0  0  0  0  0  0  0  0  0  0
    6.4030   -4.2390   20.3970 C   0  0  0  0  0  0  0  0  0  0  0  0
    5.4030   -4.8870   19.9970 O   0  0  0  0  0  0  0  0  0  0  0  0
    6.9180   -4.3850   21.7240 N   0  0  0  0  0  0  0  0  0  0  0  0
    6.4600   -5.4610   22.5200 C   0  0  0  0  0  0  0  0  0  0  0  0
    6.0480   -5.0890   23.8840 C   0  0  0  0  0  0  0  0  0  0  0  0
    6.3560   -3.7130   24.3750 C   0  0  0  0  0  0  0  0  0  0  0  0
    5.2450   -3.2090   25.2980 C   0  0  0  0  0  0  0  0  0  0  0  0
    4.1650   -2.8970   24.7800 O   0  0  0  0  0  0  0  0  0  0  0  0
    5.3620   -3.0740   26.7200 N   0  0  0  0  0  0  0  0  0  0  0  0
    6.4890   -3.3660   27.4040 C   0  0  0  0  0  0  0  0  0  0  0  0
    6.4830   -4.6220   28.1810 C   0  0  0  0  0  0  0  0  0  0  0  0
    5.3960   -4.9770   28.8480 N   0  0  0  0  0  0  0  0  0  0  0  0
    5.1790   -5.9550   29.8520 C   0  0  0  0  0  0  0  0  0  0  0  0
    3.8440   -5.8690   30.1860 C   0  0  0  0  0  0  0  0  0  0  0  0
    3.6620   -6.9300   31.2720 C   0  0  1  0  0  0  0  0  0  0  0  0
    3.3940   -7.9480   30.2210 C   0  0  0  0  0  0  0  0  0  0  0  0
    4.9470   -7.3220   32.0650 C   0  0  0  0  0  0  0  0  0  0  0  0
    5.2270   -6.7810   33.4450 C   0  0  0  0  0  0  0  0  0  0  0  0
    3.1980   -4.9150   29.4610 N   0  0  0  0  0  0  0  0  0  0  0  0
    4.2790   -4.3570   28.5830 C   0  0  0  0  0  0  0  0  0  0  0  0
    4.1800   -3.2490   27.5190 C   0  0  0  0  0  0  0  0  0  0  0  0
    6.6390   -2.7660   23.2390 C   0  0  0  0  0  0  0  0  0  0  0  0
    7.6220   -3.3350   22.4210 C   0  0  0  0  0  0  0  0  0  0  0  0
  1  2  1  0
  2  3  2  0
  2  4  1  0
  4  5  1  0
  5  6  1  0
  6  7  1  0
  7  8  1  0
  8  9  2  0
  8 10  1  0
 10 11  1  0
 11 12  1  0
 12 13  1  0
 13 14  1  0
 14 15  2  0
 15 16  1  0
 16 17  1  6
 16 18  1  0
 18 19  1  0
 15 20  1  0
 13 21  1  0
 20 21  2  0
 10 22  1  0
 21 22  1  0
  7 23  1  0
  4 24  1  0
 23 24  1  0
M  END
