piperidine-amides-12167-covalent
     RDKit          3D

 25 26  0  0  0  0  0  0  0  0999 V2000
    7.1280   -3.3000   19.2500 C   0  0  0  0  0  0  0  0  0  0  0  0
    6.3190   -4.0530   20.2020 C   0  0  0  0  0  0  0  0  0  0  0  0
    5.2410   -4.5280   19.8680 O   0  0  0  0  0  0  0  0  0  0  0  0
    6.8230   -4.2810   21.5190 N   0  0  0  0  0  0  0  0  0  0  0  0
    6.4630   -5.4750   22.2490 C   0  0  0  0  0  0  0  0  0  0  0  0
    5.7220   -5.1300   23.5190 C   0  0  0  0  0  0  0  0  0  0  0  0
    6.4960   -4.0360   24.2420 C   0  0  0  0  0  0  0  0  0  0  0  0
    5.7440   -3.5760   25.4370 C   0  0  0  0  0  0  0  0  0  0  0  0
    4.7700   -2.8010   25.3470 O   0  0  0  0  0  0  0  0  0  0  0  0
    6.1260   -4.0330   26.7270 N   0  0  0  0  0  0  0  0  0  0  0  0
    7.5120   -4.3010   27.0570 C   0  0  1  0  0  0  0  0  0  0  0  0
    7.7190   -5.7850   27.0330 C   0  0  0  0  0  0  0  0  0  0  0  0
    8.4220   -3.5860   26.1180 C   0  0  0  0  0  0  0  0  0  0  0  0
    9.7460   -4.0110   25.8870 C   0  0  0  0  0  0  0  0  0  0  0  0
   10.5550   -3.2860   25.0110 C   0  0  0  0  0  0  0  0  0  0  0  0
   10.0090   -2.1020   24.3480 C   0  0  0  0  0  0  0  0  0  0  0  0
   10.6620   -1.3570   23.5360 O   0  0  0  0  0  0  0  0  0  0  0  0
   11.2450   -2.0270   22.4660 C   0  0  0  0  0  0  0  0  0  0  0  0
   12.5700   -1.7430   22.6610 C   0  0  0  0  0  0  0  0  0  0  0  0
   13.0070   -0.4860   23.0730 C   0  0  0  0  0  0  0  0  0  0  0  0
   13.1580   -1.6090   24.0000 C   0  0  0  0  0  0  0  0  0  0  0  0
    8.7330   -1.7100   24.5750 C   0  0  0  0  0  0  0  0  0  0  0  0
    7.9690   -2.4480   25.4490 C   0  0  0  0  0  0  0  0  0  0  0  0
    6.6480   -2.8520   23.3240 C   0  0  0  0  0  0  0  0  0  0  0  0
    7.5690   -3.2570   22.1840 C   0  0  0  0  0  0  0  0  0  0  0  0
  1  2  1  0
  2  3  2  0
  2  4  1  0
  4  5  1  0
  5  6  1  0
  6  7  1  0
  7  8  1  0
  8  9  2  0
  8 10  1  0
 10 11  1  0
 11 12  1  6
 11 13  1  0
 13 14  2  0
 14 15  1  0
 15 16  2  0
 16 17  1  0
 17 18  1  0
 18 19  1  0
 19 20  1  0
 19 21  1  0
 16 22  1  0
 13 23  1  0
 22 23  2  0
  7 24  1  0
  4 25  1  0
 24 25  1  0
M  END
