piperidine-amides-1132-covalent
     RDKit          3D

 23 25  0  0  0  0  0  0  0  0999 V2000
    7.1250   -3.2900   19.2100 C   0  0  0  0  0  0  0  0  0  0  0  0
    6.3010   -4.0270   20.2040 C   0  0  0  0  0  0  0  0  0  0  0  0
    5.2190   -4.5210   19.8580 O   0  0  0  0  0  0  0  0  0  0  0  0
    6.8060   -4.1910   21.5010 N   0  0  0  0  0  0  0  0  0  0  0  0
    7.6510   -3.1920   22.1000 C   0  0  0  0  0  0  0  0  0  0  0  0
    6.8580   -2.6370   23.2660 C   0  0  0  0  0  0  0  0  0  0  0  0
    6.4430   -3.8300   24.0560 C   0  0  0  0  0  0  0  0  0  0  0  0
    5.6740   -3.4570   25.2560 C   0  0  0  0  0  0  0  0  0  0  0  0
    4.5010   -3.0980   25.0890 O   0  0  0  0  0  0  0  0  0  0  0  0
    6.2840   -3.5250   26.5070 N   0  0  0  0  0  0  0  0  0  0  0  0
    7.4430   -4.2550   26.8390 C   0  0  2  0  0  0  0  0  0  0  0  0
    8.6420   -3.9200   26.2560 C   0  0  0  0  0  0  0  0  0  0  0  0
    9.8210   -4.6440   26.4600 C   0  0  0  0  0  0  0  0  0  0  0  0
   11.0180   -4.2720   25.8900 C   0  0  0  0  0  0  0  0  0  0  0  0
   11.1600   -3.0780   25.0110 C   0  0  0  0  0  0  0  0  0  0  0  0
   12.6930   -2.5890   24.2940 Cl  0  0  0  0  0  0  0  0  0  0  0  0
    9.9720   -2.3730   24.8060 N   0  0  0  0  0  0  0  0  0  0  0  0
    8.7560   -2.8070   25.4290 C   0  0  0  0  0  0  0  0  0  0  0  0
    7.2520   -5.6140   27.1020 C   0  0  0  0  0  0  0  0  0  0  0  0
    6.0460   -5.8750   27.3210 C   0  0  0  0  0  0  0  0  0  0  0  0
    6.8510   -5.9660   28.5800 C   0  0  0  0  0  0  0  0  0  0  0  0
    5.6710   -4.8530   23.2770 C   0  0  0  0  0  0  0  0  0  0  0  0
    6.4800   -5.3490   22.2860 C   0  0  0  0  0  0  0  0  0  0  0  0
  1  2  1  0
  2  3  2  0
  2  4  1  0
  4  5  1  0
  5  6  1  0
  6  7  1  0
  7  8  1  0
  8  9  2  0
  8 10  1  0
 11 10  1  6
 11 12  1  0
 12 13  2  0
 13 14  1  0
 14 15  2  0
 15 16  1  0
 15 17  1  0
 12 18  1  0
 17 18  2  0
 11 19  1  0
 19 20  1  0
 19 21  1  0
 20 21  1  0
  7 22  1  0
  4 23  1  0
 22 23  1  0
M  END
