piperidine-amides-11560-covalent
     RDKit          3D

 23 24  0  0  0  0  0  0  0  0999 V2000
    7.1160   -3.2820   19.1980 C   0  0  0  0  0  0  0  0  0  0  0  0
    6.3820   -4.0400   20.2120 C   0  0  0  0  0  0  0  0  0  0  0  0
    5.3150   -4.6000   19.9050 O   0  0  0  0  0  0  0  0  0  0  0  0
    6.8900   -4.1850   21.5110 N   0  0  0  0  0  0  0  0  0  0  0  0
    7.6680   -3.1490   22.1390 C   0  0  0  0  0  0  0  0  0  0  0  0
    6.8360   -2.6980   23.3090 C   0  0  0  0  0  0  0  0  0  0  0  0
    6.5090   -3.8290   24.2420 C   0  0  0  0  0  0  0  0  0  0  0  0
    5.8080   -3.3490   25.4620 C   0  0  0  0  0  0  0  0  0  0  0  0
    4.5820   -3.0310   25.3950 O   0  0  0  0  0  0  0  0  0  0  0  0
    6.4270   -3.2210   26.7270 N   0  0  0  0  0  0  0  0  0  0  0  0
    5.7700   -3.7810   27.9360 C   0  0  1  0  0  0  0  0  0  0  0  0
    6.5820   -4.8480   28.5640 C   0  0  0  0  0  0  0  0  0  0  0  0
    5.5890   -2.7040   29.0170 C   0  0  0  0  0  0  0  0  0  0  0  0
    6.7250   -1.7050   28.9670 C   0  0  0  0  0  0  0  0  0  0  0  0
    6.7050   -0.5520   29.9860 C   0  0  0  0  0  0  0  0  0  0  0  0
    5.5460   -0.5370   30.9330 C   0  0  0  0  0  0  0  0  0  0  0  0
    4.5980   -1.5050   30.8590 C   0  0  0  0  0  0  0  0  0  0  0  0
    3.4840   -1.5730   31.7050 C   0  0  0  0  0  0  0  0  0  0  0  0
    2.5450   -0.3860   31.6360 C   0  0  0  0  0  0  0  0  0  0  0  0
    3.7900   -1.7210   33.1570 C   0  0  0  0  0  0  0  0  0  0  0  0
    4.5130   -2.5620   30.0080 C   0  0  0  0  0  0  0  0  0  0  0  0
    5.7300   -4.8940   23.5220 C   0  0  0  0  0  0  0  0  0  0  0  0
    6.4020   -5.2880   22.2600 C   0  0  0  0  0  0  0  0  0  0  0  0
  1  2  1  0
  2  3  2  0
  2  4  1  0
  4  5  1  0
  5  6  1  0
  6  7  1  0
  7  8  1  0
  8  9  2  0
  8 10  1  0
 10 11  1  0
 11 12  1  1
 11 13  1  0
 13 14  2  0
 14 15  1  0
 15 16  2  0
 16 17  1  0
 17 18  1  0
 18 19  1  0
 18 20  1  0
 13 21  1  0
 17 21  2  0
  7 22  1  0
  4 23  1  0
 22 23  1  0
M  END
