piperidine-amides-10364-covalent
     RDKit          3D

 24 26  0  0  0  0  0  0  0  0999 V2000
    7.1490   -3.9760   19.7210 C   0  0  0  0  0  0  0  0  0  0  0  0
    5.9090   -3.8940   20.3690 C   0  0  0  0  0  0  0  0  0  0  0  0
    4.9390   -3.9760   19.5800 O   0  0  0  0  0  0  0  0  0  0  0  0
    5.9140   -3.8440   21.7510 N   0  0  0  0  0  0  0  0  0  0  0  0
    5.7170   -5.1070   22.4420 C   0  0  0  0  0  0  0  0  0  0  0  0
    5.7990   -4.8720   23.9180 C   0  0  0  0  0  0  0  0  0  0  0  0
    5.5680   -3.4210   24.2500 C   0  0  0  0  0  0  0  0  0  0  0  0
    5.3160   -3.2290   25.7070 C   0  0  0  0  0  0  0  0  0  0  0  0
    4.1160   -3.1560   26.0340 O   0  0  0  0  0  0  0  0  0  0  0  0
    6.2710   -3.1100   26.7530 N   0  0  0  0  0  0  0  0  0  0  0  0
    7.4130   -3.9740   26.8620 C   0  0  0  0  0  0  0  0  0  0  0  0
    8.3500   -3.6060   25.7470 C   0  0  0  0  0  0  0  0  0  0  0  0
    8.1640   -4.1430   24.3680 N   0  0  0  0  0  0  0  0  0  0  0  0
    9.0940   -3.6710   23.5040 N   0  0  0  0  0  0  0  0  0  0  0  0
    9.9070   -2.8680   24.1690 C   0  0  0  0  0  0  0  0  0  0  0  0
   10.9480   -2.2670   23.5310 C   0  0  0  0  0  0  0  0  0  0  0  0
   11.1800   -2.3360   22.1840 C   0  0  0  0  0  0  0  0  0  0  0  0
   12.2150   -1.7560   21.5160 C   0  0  0  0  0  0  0  0  0  0  0  0
   13.1010   -1.0250   22.2490 C   0  0  0  0  0  0  0  0  0  0  0  0
   12.9610   -0.8650   23.7420 C   0  0  0  0  0  0  0  0  0  0  0  0
   11.7690   -1.5740   24.3720 C   0  0  0  0  0  0  0  0  0  0  0  0
    9.7250   -2.5250   25.8600 S   0  0  0  0  0  0  0  0  0  0  0  0
    6.6220   -2.4810   23.6360 C   0  0  0  0  0  0  0  0  0  0  0  0
    7.0270   -3.0600   22.2850 C   0  0  0  0  0  0  0  0  0  0  0  0
  1  2  1  0
  2  3  2  0
  2  4  1  0
  4  5  1  0
  5  6  1  0
  6  7  1  0
  7  8  1  0
  8  9  2  0
  8 10  1  0
 10 11  1  0
 11 12  1  0
 12 13  2  0
 13 14  1  0
 14 15  2  0
 15 16  1  0
 16 17  2  0
 17 18  1  0
 18 19  2  0
 19 20  1  0
 16 21  1  0
 20 21  2  0
 12 22  1  0
 15 22  1  0
  7 23  1  0
  4 24  1  0
 23 24  1  0
M  END
