piperidine-amides-13193-covalent
     RDKit          3D

 19 20  0  0  0  0  0  0  0  0999 V2000
    7.1310   -3.2770   19.2330 C   0  0  0  0  0  0  0  0  0  0  0  0
    6.4040   -4.0610   20.2530 C   0  0  0  0  0  0  0  0  0  0  0  0
    5.3220   -4.5730   19.9000 O   0  0  0  0  0  0  0  0  0  0  0  0
    6.9510   -4.2620   21.5350 N   0  0  0  0  0  0  0  0  0  0  0  0
    7.6770   -3.2150   22.1840 C   0  0  0  0  0  0  0  0  0  0  0  0
    7.1740   -2.9190   23.5230 C   0  0  0  0  0  0  0  0  0  0  0  0
    5.9460   -3.6680   23.8540 C   0  0  0  0  0  0  0  0  0  0  0  0
    5.5260   -3.3780   25.2370 C   0  0  0  0  0  0  0  0  0  0  0  0
    4.3080   -3.3410   25.4840 O   0  0  0  0  0  0  0  0  0  0  0  0
    6.4610   -3.1460   26.2430 N   0  0  0  0  0  0  0  0  0  0  0  0
    6.1870   -3.4320   27.6620 C   0  0  0  0  0  0  0  0  0  0  0  0
    6.8000   -2.3730   28.4960 C   0  0  0  0  0  0  0  0  0  0  0  0
    5.9680   -1.5210   29.3440 C   0  0  0  0  0  0  0  0  0  0  0  0
    4.5720   -1.6810   29.3780 C   0  0  0  0  0  0  0  0  0  0  0  0
    4.0550   -0.4250   29.3330 C   0  0  0  0  0  0  0  0  0  0  0  0
    5.0040    0.4890   29.2380 C   0  0  0  0  0  0  0  0  0  0  0  0
    6.2040   -0.1490   29.2180 C   0  0  0  0  0  0  0  0  0  0  0  0
    5.9880   -5.1140   23.5350 C   0  0  0  0  0  0  0  0  0  0  0  0
    6.5850   -5.4220   22.3060 C   0  0  0  0  0  0  0  0  0  0  0  0
  1  2  1  0
  2  3  2  0
  2  4  1  0
  4  5  1  0
  5  6  1  0
  6  7  1  0
  7  8  1  0
  8  9  2  0
  8 10  1  0
 10 11  1  0
 11 12  1  0
 12 13  1  0
 13 14  1  0
 14 15  1  0
 15 16  2  0
 13 17  1  0
 16 17  1  0
  7 18  1  0
  4 19  1  0
 18 19  1  0
M  END
