piperidine-amides-8204-covalent
     RDKit          3D

 25 26  0  0  0  0  0  0  0  0999 V2000
    7.0800   -3.3440   19.3370 C   0  0  0  0  0  0  0  0  0  0  0  0
    6.3680   -4.1640   20.3130 C   0  0  0  0  0  0  0  0  0  0  0  0
    5.3150   -4.7140   19.9440 O   0  0  0  0  0  0  0  0  0  0  0  0
    6.9020   -4.3700   21.6140 N   0  0  0  0  0  0  0  0  0  0  0  0
    6.4050   -5.4620   22.3800 C   0  0  0  0  0  0  0  0  0  0  0  0
    5.4820   -4.9170   23.4350 C   0  0  0  0  0  0  0  0  0  0  0  0
    6.2500   -3.9430   24.3280 C   0  0  0  0  0  0  0  0  0  0  0  0
    5.2830   -3.3970   25.3530 C   0  0  0  0  0  0  0  0  0  0  0  0
    4.2680   -2.9090   24.8710 O   0  0  0  0  0  0  0  0  0  0  0  0
    5.5400   -3.4440   26.7410 N   0  0  0  0  0  0  0  0  0  0  0  0
    5.9730   -4.6110   27.4390 C   0  0  1  0  0  0  0  0  0  0  0  0
    7.1610   -4.4250   28.0930 C   0  0  0  0  0  0  0  0  0  0  0  0
    8.0280   -4.4040   27.1240 C   0  0  0  0  0  0  0  0  0  0  0  0
    8.0250   -3.3270   26.2250 C   0  0  0  0  0  0  0  0  0  0  0  0
    8.9820   -3.3270   25.1010 C   0  0  0  0  0  0  0  0  0  0  0  0
    9.8310   -4.3190   24.9420 N   0  0  0  0  0  0  0  0  0  0  0  0
    9.8750   -5.3410   25.7740 C   0  0  0  0  0  0  0  0  0  0  0  0
    9.0200   -5.5030   26.9080 C   0  0  0  0  0  0  0  0  0  0  0  0
    5.0000   -4.9180   28.5420 C   0  0  0  0  0  0  0  0  0  0  0  0
    3.8010   -4.5480   28.4490 O   0  0  0  0  0  0  0  0  0  0  0  0
    5.3120   -5.5340   29.5870 O   0  0  0  0  0  0  0  0  0  0  0  0
    5.6540   -6.9100   29.6200 C   0  0  0  0  0  0  0  0  0  0  0  0
    5.5900   -7.4380   30.8880 C   0  0  0  0  0  0  0  0  0  0  0  0
    6.7020   -2.7830   23.4670 C   0  0  0  0  0  0  0  0  0  0  0  0
    7.4980   -3.2320   22.2660 C   0  0  0  0  0  0  0  0  0  0  0  0
  1  2  1  0
  2  3  2  0
  2  4  1  0
  4  5  1  0
  5  6  1  0
  6  7  1  0
  7  8  1  0
  8  9  2  0
  8 10  1  0
 10 11  1  0
 11 12  1  1
 12 13  1  0
 13 14  2  0
 14 15  1  0
 15 16  2  0
 16 17  1  0
 13 18  1  0
 17 18  2  0
 11 19  1  0
 19 20  2  0
 19 21  1  0
 21 22  1  0
 22 23  1  0
  7 24  1  0
  4 25  1  0
 24 25  1  0
M  END
