piperidine-amides-3509-covalent
     RDKit          3D

 20 21  0  0  0  0  0  0  0  0999 V2000
    7.0530   -3.3630   19.3200 C   0  0  0  0  0  0  0  0  0  0  0  0
    6.3380   -4.1530   20.3130 C   0  0  0  0  0  0  0  0  0  0  0  0
    5.3520   -4.8030   19.9720 O   0  0  0  0  0  0  0  0  0  0  0  0
    6.8070   -4.2150   21.6690 N   0  0  0  0  0  0  0  0  0  0  0  0
    7.7150   -3.2070   22.1740 C   0  0  0  0  0  0  0  0  0  0  0  0
    7.4810   -2.9770   23.6340 C   0  0  0  0  0  0  0  0  0  0  0  0
    6.1570   -3.6400   23.9460 C   0  0  0  0  0  0  0  0  0  0  0  0
    5.6830   -3.3050   25.3120 C   0  0  0  0  0  0  0  0  0  0  0  0
    4.5330   -3.5980   25.6930 O   0  0  0  0  0  0  0  0  0  0  0  0
    6.5320   -2.6170   26.2080 N   0  0  0  0  0  0  0  0  0  0  0  0
    5.8680   -1.8570   27.2420 C   0  0  0  0  0  0  0  0  0  0  0  0
    6.6760   -1.5200   28.4550 C   0  0  0  0  0  0  0  0  0  0  0  0
    6.8560   -0.2100   28.2330 N   0  0  0  0  0  0  0  0  0  0  0  0
    6.6100    0.4540   29.3770 C   0  0  0  0  0  0  0  0  0  0  0  0
    7.3000    0.3760   30.4200 O   0  0  0  0  0  0  0  0  0  0  0  0
    5.5410    1.3330   29.5850 C   0  0  0  0  0  0  0  0  0  0  0  0
    5.3890    1.6500   30.9190 C   0  0  0  0  0  0  0  0  0  0  0  0
    6.0920   -0.3790   27.0130 C   0  0  0  0  0  0  0  0  0  0  0  0
    6.1490   -5.1280   23.7090 C   0  0  0  0  0  0  0  0  0  0  0  0
    6.6710   -5.4430   22.4650 C   0  0  0  0  0  0  0  0  0  0  0  0
  1  2  1  0
  2  3  2  0
  2  4  1  0
  4  5  1  0
  5  6  1  0
  6  7  1  0
  7  8  1  0
  8  9  2  0
  8 10  1  0
 10 11  1  0
 11 12  1  0
 12 13  1  0
 13 14  1  0
 14 15  2  0
 14 16  1  0
 16 17  1  0
 11 18  1  0
 13 18  1  0
  7 19  1  0
  4 20  1  0
 19 20  1  0
M  END
