piperidine-amides-1944-covalent
     RDKit          3D

 24 25  0  0  0  0  0  0  0  0999 V2000
    7.1020   -3.2640   19.1680 C   0  0  0  0  0  0  0  0  0  0  0  0
    6.3470   -4.0150   20.2100 C   0  0  0  0  0  0  0  0  0  0  0  0
    5.2870   -4.5370   19.8760 O   0  0  0  0  0  0  0  0  0  0  0  0
    6.8730   -4.1370   21.4950 N   0  0  0  0  0  0  0  0  0  0  0  0
    7.7390   -3.1230   22.0350 C   0  0  0  0  0  0  0  0  0  0  0  0
    7.3770   -2.8940   23.4620 C   0  0  0  0  0  0  0  0  0  0  0  0
    5.9650   -3.4260   23.7040 C   0  0  0  0  0  0  0  0  0  0  0  0
    5.5520   -2.8950   25.0120 C   0  0  0  0  0  0  0  0  0  0  0  0
    4.4360   -3.1730   25.4780 O   0  0  0  0  0  0  0  0  0  0  0  0
    6.4400   -2.0530   25.7120 N   0  0  0  0  0  0  0  0  0  0  0  0
    6.0690   -1.5770   27.0110 C   0  0  0  0  0  0  0  0  0  0  0  0
    6.9130   -2.2920   28.0190 C   0  0  2  0  0  0  0  0  0  0  0  0
    6.5100   -3.2610   28.8770 C   0  0  0  0  0  0  0  0  0  0  0  0
    7.8410   -1.4780   28.6290 O   0  0  0  0  0  0  0  0  0  0  0  0
    7.5290   -3.5510   27.8570 C   0  0  0  0  0  0  0  0  0  0  0  0
    6.9120   -4.7330   28.0910 C   0  0  0  0  0  0  0  0  0  0  0  0
    7.1230   -5.9410   27.2410 C   0  0  0  0  0  0  0  0  0  0  0  0
    8.5790   -5.6290   27.0690 C   0  0  0  0  0  0  0  0  0  0  0  0
    9.3260   -6.7190   26.7050 F   0  0  0  0  0  0  0  0  0  0  0  0
    9.0870   -5.1740   28.2680 F   0  0  0  0  0  0  0  0  0  0  0  0
    8.6100   -4.6360   25.9470 C   0  0  0  0  0  0  0  0  0  0  0  0
    7.9390   -3.4530   26.5430 C   0  0  0  0  0  0  0  0  0  0  0  0
    5.8590   -4.9210   23.5600 C   0  0  0  0  0  0  0  0  0  0  0  0
    6.5740   -5.3170   22.2760 C   0  0  0  0  0  0  0  0  0  0  0  0
  1  2  1  0
  2  3  2  0
  2  4  1  0
  4  5  1  0
  5  6  1  0
  6  7  1  0
  7  8  1  0
  8  9  2  0
  8 10  1  0
 10 11  1  0
 11 12  1  0
 12 13  1  1
 12 14  1  0
 12 15  1  0
 15 16  1  0
 16 17  1  0
 17 18  1  0
 18 19  1  0
 18 20  1  0
 18 21  1  0
 15 22  1  0
 21 22  1  0
  7 23  1  0
  4 24  1  0
 23 24  1  0
M  END
