piperidine-amides-14190-covalent
     RDKit          3D

 24 26  0  0  0  0  0  0  0  0999 V2000
    7.0460   -3.2950   19.3280 C   0  0  0  0  0  0  0  0  0  0  0  0
    6.3300   -4.1350   20.3330 C   0  0  0  0  0  0  0  0  0  0  0  0
    5.3300   -4.7710   19.9590 O   0  0  0  0  0  0  0  0  0  0  0  0
    6.8060   -4.2340   21.6670 N   0  0  0  0  0  0  0  0  0  0  0  0
    6.6830   -5.4590   22.4360 C   0  0  0  0  0  0  0  0  0  0  0  0
    6.0930   -5.1590   23.8330 C   0  0  0  0  0  0  0  0  0  0  0  0
    5.9800   -3.6800   24.0030 C   0  0  0  0  0  0  0  0  0  0  0  0
    5.4180   -3.2350   25.3130 C   0  0  0  0  0  0  0  0  0  0  0  0
    4.2320   -2.9100   25.2760 O   0  0  0  0  0  0  0  0  0  0  0  0
    6.1590   -3.1850   26.5080 N   0  0  0  0  0  0  0  0  0  0  0  0
    6.2670   -4.2040   27.5010 C   0  0  0  0  0  0  0  0  0  0  0  0
    5.4510   -4.5000   28.5550 C   0  0  0  0  0  0  0  0  0  0  0  0
    4.3680   -3.7220   28.9340 C   0  0  0  0  0  0  0  0  0  0  0  0
    3.5980   -4.0420   29.9730 C   0  0  0  0  0  0  0  0  0  0  0  0
    2.1310   -2.9650   30.4700 Br  0  0  0  0  0  0  0  0  0  0  0  0
    3.9200   -5.2440   30.7200 C   0  0  0  0  0  0  0  0  0  0  0  0
    3.1080   -5.6990   31.9270 C   0  0  0  0  0  0  0  0  0  0  0  0
    3.5340   -6.9600   32.6320 C   0  0  0  0  0  0  0  0  0  0  0  0
    4.6100   -7.6960   32.2210 C   0  0  0  0  0  0  0  0  0  0  0  0
    5.4750   -7.3610   31.0630 C   0  0  0  0  0  0  0  0  0  0  0  0
    5.1070   -6.0840   30.2920 C   0  0  0  0  0  0  0  0  0  0  0  0
    5.9770   -5.8360   29.2150 C   0  0  0  0  0  0  0  0  0  0  0  0
    7.2310   -2.9360   23.6830 C   0  0  0  0  0  0  0  0  0  0  0  0
    7.6380   -3.1820   22.2510 C   0  0  0  0  0  0  0  0  0  0  0  0
  1  2  1  0
  2  3  2  0
  2  4  1  0
  4  5  1  0
  5  6  1  0
  6  7  1  0
  7  8  1  0
  8  9  2  0
  8 10  1  0
 10 11  1  0
 11 12  1  0
 12 13  2  0
 13 14  1  0
 14 15  1  0
 14 16  2  0
 16 17  1  0
 17 18  2  0
 18 19  1  0
 19 20  2  0
 16 21  1  0
 20 21  1  0
 12 22  1  0
 21 22  2  0
  7 23  1  0
  4 24  1  0
 23 24  1  0
M  END
