piperidine-amides-11409-covalent
     RDKit          3D

 22 24  0  0  0  0  0  0  0  0999 V2000
    7.1040   -3.2950   19.2150 C   0  0  0  0  0  0  0  0  0  0  0  0
    6.3590   -4.0550   20.2200 C   0  0  0  0  0  0  0  0  0  0  0  0
    5.2990   -4.6160   19.9060 O   0  0  0  0  0  0  0  0  0  0  0  0
    6.8600   -4.2020   21.5130 N   0  0  0  0  0  0  0  0  0  0  0  0
    7.7080   -3.2050   22.1300 C   0  0  0  0  0  0  0  0  0  0  0  0
    6.9740   -2.7660   23.3550 C   0  0  0  0  0  0  0  0  0  0  0  0
    6.6760   -3.9440   24.2180 C   0  0  0  0  0  0  0  0  0  0  0  0
    5.9990   -3.5470   25.4650 C   0  0  0  0  0  0  0  0  0  0  0  0
    4.8180   -3.9460   25.6960 O   0  0  0  0  0  0  0  0  0  0  0  0
    6.6110   -2.7140   26.4310 N   0  0  0  0  0  0  0  0  0  0  0  0
    6.1650   -1.3120   26.5500 C   0  0  1  0  0  0  0  0  0  0  0  0
    4.7390   -1.3770   26.5370 C   0  0  0  0  0  0  0  0  0  0  0  0
    4.4070   -1.0790   28.1100 S   0  0  0  0  0  0  0  0  0  0  0  0
    4.0090   -2.2570   28.9120 O   0  0  0  0  0  0  0  0  0  0  0  0
    3.5040    0.1090   28.3630 O   0  0  0  0  0  0  0  0  0  0  0  0
    6.1720   -0.7270   28.0050 C   0  0  0  0  0  0  0  0  0  0  0  0
    6.1210    0.7460   27.8200 C   0  0  0  0  0  0  0  0  0  0  0  0
    6.6330    1.1950   29.1760 C   0  0  0  0  0  0  0  0  0  0  0  0
    7.1310   -0.0600   29.8450 C   0  0  0  0  0  0  0  0  0  0  0  0
    6.9960   -1.1350   29.0150 C   0  0  0  0  0  0  0  0  0  0  0  0
    5.8370   -4.9830   23.5080 C   0  0  0  0  0  0  0  0  0  0  0  0
    6.5700   -5.4110   22.2580 C   0  0  0  0  0  0  0  0  0  0  0  0
  1  2  1  0
  2  3  2  0
  2  4  1  0
  4  5  1  0
  5  6  1  0
  6  7  1  0
  7  8  1  0
  8  9  2  0
  8 10  1  0
 11 10  1  1
 11 12  1  0
 13 12  1  0
 13 14  2  0
 13 15  2  0
 11 16  1  0
 13 16  1  0
 16 17  1  0
 17 18  1  0
 18 19  1  0
 16 20  1  0
 19 20  1  0
  7 21  1  0
  4 22  1  0
 21 22  1  0
M  END
