piperidine-amides-14535-covalent
     RDKit          3D

 23 24  0  0  0  0  0  0  0  0999 V2000
    7.0870   -3.3170   19.2740 C   0  0  0  0  0  0  0  0  0  0  0  0
    6.4090   -4.1310   20.2820 C   0  0  0  0  0  0  0  0  0  0  0  0
    5.3580   -4.7110   19.9500 O   0  0  0  0  0  0  0  0  0  0  0  0
    6.9710   -4.2910   21.5790 N   0  0  0  0  0  0  0  0  0  0  0  0
    7.6330   -3.1730   22.1790 C   0  0  0  0  0  0  0  0  0  0  0  0
    6.7800   -2.6550   23.2970 C   0  0  0  0  0  0  0  0  0  0  0  0
    6.5840   -3.7970   24.2690 C   0  0  0  0  0  0  0  0  0  0  0  0
    5.8130   -3.3120   25.4650 C   0  0  0  0  0  0  0  0  0  0  0  0
    4.6400   -3.0150   25.2520 O   0  0  0  0  0  0  0  0  0  0  0  0
    6.4400   -3.2310   26.7100 N   0  0  0  0  0  0  0  0  0  0  0  0
    5.8540   -3.7770   27.8960 C   0  0  1  0  0  0  0  0  0  0  0  0
    6.6150   -4.6700   28.6650 C   0  0  0  0  0  0  0  0  0  0  0  0
    5.6030   -2.6390   28.8080 C   0  0  0  0  0  0  0  0  0  0  0  0
    4.3710   -2.2810   29.3540 C   0  0  0  0  0  0  0  0  0  0  0  0
    4.3720   -1.0860   30.2550 C   0  0  0  0  0  0  0  0  0  0  0  0
    5.6710   -0.3160   30.5450 C   0  0  0  0  0  0  0  0  0  0  0  0
    5.5130    0.6620   31.3190 O   0  0  0  0  0  0  0  0  0  0  0  0
    5.9400    0.4200   32.5960 C   0  0  0  0  0  0  0  0  0  0  0  0
    4.9900   -0.4590   33.3620 C   0  0  0  0  0  0  0  0  0  0  0  0
    6.8480   -0.7420   29.9590 C   0  0  0  0  0  0  0  0  0  0  0  0
    6.8540   -1.8350   29.1330 C   0  0  0  0  0  0  0  0  0  0  0  0
    5.7640   -4.8480   23.5720 C   0  0  0  0  0  0  0  0  0  0  0  0
    6.4790   -5.3950   22.3600 C   0  0  0  0  0  0  0  0  0  0  0  0
  1  2  1  0
  2  3  2  0
  2  4  1  0
  4  5  1  0
  5  6  1  0
  6  7  1  0
  7  8  1  0
  8  9  2  0
  8 10  1  0
 10 11  1  0
 11 12  1  1
 11 13  1  0
 13 14  2  0
 14 15  1  0
 15 16  2  0
 16 17  1  0
 17 18  1  0
 18 19  1  0
 16 20  1  0
 13 21  1  0
 20 21  2  0
  7 22  1  0
  4 23  1  0
 22 23  1  0
M  END
