piperidine-amides-12674-covalent
     RDKit          3D

 22 23  0  0  0  0  0  0  0  0999 V2000
    7.1710   -4.0240   19.7210 C   0  0  0  0  0  0  0  0  0  0  0  0
    5.9370   -3.8140   20.3570 C   0  0  0  0  0  0  0  0  0  0  0  0
    4.9700   -3.9460   19.5840 O   0  0  0  0  0  0  0  0  0  0  0  0
    5.9500   -3.5940   21.7290 N   0  0  0  0  0  0  0  0  0  0  0  0
    5.5810   -4.7020   22.5290 C   0  0  0  0  0  0  0  0  0  0  0  0
    5.4870   -4.4370   23.9750 C   0  0  0  0  0  0  0  0  0  0  0  0
    6.1540   -3.2270   24.5560 C   0  0  0  0  0  0  0  0  0  0  0  0
    5.1810   -2.6030   25.5190 C   0  0  0  0  0  0  0  0  0  0  0  0
    4.0180   -2.4710   25.1040 O   0  0  0  0  0  0  0  0  0  0  0  0
    5.4730   -2.1800   26.8540 N   0  0  0  0  0  0  0  0  0  0  0  0
    5.3950   -3.1490   27.9790 C   0  0  0  0  0  0  0  0  0  0  0  0
    6.2120   -4.2030   27.4580 C   0  0  0  0  0  0  0  0  0  0  0  0
    6.8830   -4.0720   26.4490 O   0  0  0  0  0  0  0  0  0  0  0  0
    7.5110   -5.1650   26.2400 C   0  0  0  0  0  0  0  0  0  0  0  0
    8.3810   -5.3940   25.2610 C   0  0  0  0  0  0  0  0  0  0  0  0
    9.4430   -6.1010   25.7930 C   0  0  0  0  0  0  0  0  0  0  0  0
    7.7530   -5.8810   23.9940 C   0  0  0  0  0  0  0  0  0  0  0  0
    7.3090   -6.2710   27.1640 N   0  0  0  0  0  0  0  0  0  0  0  0
    6.4180   -5.5860   27.9850 C   0  0  0  0  0  0  0  0  0  0  0  0
    5.9270   -6.2600   29.0590 C   0  0  0  0  0  0  0  0  0  0  0  0
    6.6150   -2.2240   23.5250 C   0  0  0  0  0  0  0  0  0  0  0  0
    7.0730   -2.8790   22.2850 C   0  0  0  0  0  0  0  0  0  0  0  0
  1  2  1  0
  2  3  2  0
  2  4  1  0
  4  5  1  0
  5  6  1  0
  6  7  1  0
  7  8  1  0
  8  9  2  0
  8 10  1  0
 10 11  1  0
 11 12  1  0
 12 13  1  0
 13 14  1  0
 14 15  1  0
 15 16  1  0
 15 17  1  0
 14 18  2  0
 12 19  2  0
 18 19  1  0
 19 20  1  0
  7 21  1  0
  4 22  1  0
 21 22  1  0
M  END
