piperidine-amides-18862-covalent
     RDKit          3D

 22 25  0  0  0  0  0  0  0  0999 V2000
    7.2080   -3.3480   19.3850 C   0  0  0  0  0  0  0  0  0  0  0  0
    6.4060   -4.1030   20.3100 C   0  0  0  0  0  0  0  0  0  0  0  0
    5.3200   -4.6340   19.9170 O   0  0  0  0  0  0  0  0  0  0  0  0
    6.8510   -4.2860   21.6220 N   0  0  0  0  0  0  0  0  0  0  0  0
    6.6330   -5.5860   22.2830 C   0  0  0  0  0  0  0  0  0  0  0  0
    5.7030   -5.0790   23.4390 C   0  0  0  0  0  0  0  0  0  0  0  0
    6.5110   -4.0400   24.1920 C   0  0  0  0  0  0  0  0  0  0  0  0
    5.6760   -3.4840   25.4030 C   0  0  0  0  0  0  0  0  0  0  0  0
    4.6240   -2.9740   25.0450 O   0  0  0  0  0  0  0  0  0  0  0  0
    6.3470   -3.7320   26.4280 N   0  0  0  0  0  0  0  0  0  0  0  0
    7.3880   -4.1110   27.2710 C   0  0  1  0  0  0  0  0  0  0  0  0
    7.7610   -3.4070   28.3050 C   0  0  0  0  0  0  0  0  0  0  0  0
    6.4660   -2.9540   28.6690 C   0  0  0  0  0  0  0  0  0  0  0  0
    5.4850   -3.4660   27.6700 C   0  0  2  0  0  0  0  0  0  0  0  0
    5.6580   -4.7850   28.3070 C   0  0  0  0  0  0  0  0  0  0  0  0
    4.6430   -5.3890   29.0310 C   0  0  0  0  0  0  0  0  0  0  0  0
    4.7370   -6.6870   29.6970 C   0  0  0  0  0  0  0  0  0  0  0  0
    6.2380   -7.0910   29.3280 C   0  0  0  0  0  0  0  0  0  0  0  0
    7.3310   -6.3220   28.4810 C   0  0  0  0  0  0  0  0  0  0  0  0
    6.7990   -5.2470   28.1070 C   0  0  0  0  0  0  0  0  0  0  0  0
    7.1160   -2.8880   23.4030 C   0  0  0  0  0  0  0  0  0  0  0  0
    7.6620   -3.2760   22.2420 C   0  0  0  0  0  0  0  0  0  0  0  0
  1  2  1  0
  2  3  2  0
  2  4  1  0
  4  5  1  0
  5  6  1  0
  6  7  1  0
  7  8  1  0
  8  9  2  0
  8 10  1  0
 10 11  1  0
 11 12  1  1
 12 13  1  0
 10 14  1  0
 14 13  1  1
 14 15  1  0
 15 16  1  0
 16 17  2  0
 17 18  1  0
 18 19  2  0
 11 20  1  0
 15 20  2  0
 19 20  1  0
  7 21  1  0
  4 22  1  0
 21 22  1  0
M  END
