piperidine-amides-4284-covalent
     RDKit          3D

 26 28  0  0  0  0  0  0  0  0999 V2000
    7.1280   -3.3440   19.3330 C   0  0  0  0  0  0  0  0  0  0  0  0
    6.4010   -4.1390   20.3310 C   0  0  0  0  0  0  0  0  0  0  0  0
    5.3470   -4.7040   19.9470 O   0  0  0  0  0  0  0  0  0  0  0  0
    6.9110   -4.3080   21.6440 N   0  0  0  0  0  0  0  0  0  0  0  0
    7.6740   -3.2440   22.2200 C   0  0  0  0  0  0  0  0  0  0  0  0
    7.3540   -2.9670   23.6140 C   0  0  0  0  0  0  0  0  0  0  0  0
    6.1170   -3.6390   24.0530 C   0  0  0  0  0  0  0  0  0  0  0  0
    5.6810   -3.2510   25.4350 C   0  0  0  0  0  0  0  0  0  0  0  0
    4.5300   -3.5750   25.7820 O   0  0  0  0  0  0  0  0  0  0  0  0
    6.4840   -2.5250   26.3410 N   0  0  0  0  0  0  0  0  0  0  0  0
    6.0330   -1.5930   27.3220 C   0  0  0  0  0  0  0  0  0  0  0  0
    4.8440   -1.9710   28.0900 C   0  0  0  0  0  0  0  0  0  0  0  0
    3.8040   -0.8720   27.9460 C   0  0  0  0  0  0  0  0  0  0  0  0
    2.6080   -1.0680   28.6170 C   0  0  0  0  0  0  0  0  0  0  0  0
    2.3750   -2.3520   29.4600 C   0  0  0  0  0  0  0  0  0  0  0  0
    0.8390   -2.5450   30.2870 Cl  0  0  0  0  0  0  0  0  0  0  0  0
    3.4550   -3.4080   29.5590 C   0  0  0  0  0  0  0  0  0  0  0  0
    4.7860   -3.2160   28.8270 C   0  0  0  0  0  0  0  0  0  0  0  0
    5.8460   -4.0800   28.8300 F   0  0  0  0  0  0  0  0  0  0  0  0
    7.1810   -1.4210   28.2350 C   0  0  0  0  0  0  0  0  0  0  0  0
    6.7640   -0.4400   29.3090 C   0  0  0  0  0  0  0  0  0  0  0  0
    5.9050    0.7570   28.8580 C   0  0  0  0  0  0  0  0  0  0  0  0
    5.9180    0.8260   27.3660 C   0  0  0  0  0  0  0  0  0  0  0  0
    5.7560   -0.3370   26.6060 C   0  0  0  0  0  0  0  0  0  0  0  0
    6.1110   -5.1060   23.7990 C   0  0  0  0  0  0  0  0  0  0  0  0
    6.5630   -5.4790   22.4060 C   0  0  0  0  0  0  0  0  0  0  0  0
  1  2  1  0
  2  3  2  0
  2  4  1  0
  4  5  1  0
  5  6  1  0
  6  7  1  0
  7  8  1  0
  8  9  2  0
  8 10  1  0
 11 10  1  0
 11 12  1  0
 12 13  2  0
 13 14  1  0
 14 15  2  0
 15 16  1  0
 15 17  1  0
 12 18  1  0
 17 18  2  0
 18 19  1  0
 11 20  1  0
 20 21  1  0
 21 22  1  0
 22 23  1  0
 11 24  1  0
 23 24  1  0
  7 25  1  0
  4 26  1  0
 25 26  1  0
M  END
