piperidine-amides-9860-covalent
     RDKit          3D

 27 28  0  0  0  0  0  0  0  0999 V2000
    7.1550   -3.1420   19.0250 C   0  0  0  0  0  0  0  0  0  0  0  0
    6.2370   -3.6670   20.0270 C   0  0  0  0  0  0  0  0  0  0  0  0
    5.1340   -4.1140   19.6390 O   0  0  0  0  0  0  0  0  0  0  0  0
    6.5960   -3.7210   21.3600 N   0  0  0  0  0  0  0  0  0  0  0  0
    7.4660   -2.7510   21.9990 C   0  0  0  0  0  0  0  0  0  0  0  0
    6.7940   -2.2420   23.2610 C   0  0  0  0  0  0  0  0  0  0  0  0
    6.2430   -3.3600   24.1360 C   0  0  0  0  0  0  0  0  0  0  0  0
    5.5250   -2.8240   25.3080 C   0  0  0  0  0  0  0  0  0  0  0  0
    4.2950   -2.6100   25.2130 O   0  0  0  0  0  0  0  0  0  0  0  0
    6.1660   -2.5660   26.5370 N   0  0  0  0  0  0  0  0  0  0  0  0
    6.2430   -3.6100   27.5220 C   0  0  0  0  0  0  0  0  0  0  0  0
    7.5390   -3.5690   28.2940 C   0  0  0  0  0  0  0  0  0  0  0  0
    8.1580   -2.5070   28.5510 O   0  0  0  0  0  0  0  0  0  0  0  0
    7.8630   -4.9460   28.6680 N   0  0  0  0  0  0  0  0  0  0  0  0
    8.6930   -5.6400   27.9350 C   0  0  0  0  0  0  0  0  0  0  0  0
    8.8590   -5.2770   26.6240 C   0  0  0  0  0  0  0  0  0  0  0  0
    9.8640   -5.7930   25.8560 O   0  0  0  0  0  0  0  0  0  0  0  0
    8.0460   -4.3870   26.0490 N   0  0  0  0  0  0  0  0  0  0  0  0
    8.4100   -4.2180   24.6970 C   0  0  0  0  0  0  0  0  0  0  0  0
    7.5570   -4.8990   23.8230 C   0  0  0  0  0  0  0  0  0  0  0  0
    6.4840   -4.2780   23.1670 C   0  0  0  0  0  0  0  0  0  0  0  0
    5.4410   -4.8350   22.1890 C   0  0  0  0  0  0  0  0  0  0  0  0
    5.6420   -6.3050   21.9180 C   0  0  0  0  0  0  0  0  0  0  0  0
    6.7350   -7.0570   22.5560 C   0  0  0  0  0  0  0  0  0  0  0  0
    7.6820   -6.3760   23.4910 C   0  0  0  0  0  0  0  0  0  0  0  0
    5.3570   -4.2980   23.3880 C   0  0  0  0  0  0  0  0  0  0  0  0
    6.0360   -4.8000   22.1070 C   0  0  0  0  0  0  0  0  0  0  0  0
  1  2  1  0
  2  3  2  0
  2  4  1  0
  4  5  1  0
  5  6  1  0
  6  7  1  0
  7  8  1  0
  8  9  2  0
  8 10  1  0
 10 11  1  0
 11 12  1  0
 12 13  2  0
 12 14  1  0
 14 15  1  0
 15 16  1  0
 16 17  2  0
 16 18  1  0
 18 19  1  0
 19 20  1  0
 20 21  2  0
 21 22  1  0
 22 23  2  0
 23 24  1  0
 20 25  1  0
 24 25  2  0
  7 26  1  0
  4 27  1  0
 26 27  1  0
M  END
