piperidine-amides-32939-covalent
     RDKit          3D

 28 30  0  0  0  0  0  0  0  0999 V2000
    7.1070   -3.3640   19.3510 C   0  0  0  0  0  0  0  0  0  0  0  0
    6.3950   -4.2100   20.3430 C   0  0  0  0  0  0  0  0  0  0  0  0
    5.3720   -4.8200   19.9820 O   0  0  0  0  0  0  0  0  0  0  0  0
    6.9300   -4.3370   21.6450 N   0  0  0  0  0  0  0  0  0  0  0  0
    7.7630   -3.3070   22.2290 C   0  0  0  0  0  0  0  0  0  0  0  0
    6.8960   -2.5680   23.2430 C   0  0  0  0  0  0  0  0  0  0  0  0
    6.0310   -3.5820   23.9070 C   0  0  0  0  0  0  0  0  0  0  0  0
    5.4820   -3.1220   25.2010 C   0  0  0  0  0  0  0  0  0  0  0  0
    4.2880   -2.8090   25.1640 O   0  0  0  0  0  0  0  0  0  0  0  0
    6.2230   -3.0500   26.3890 N   0  0  0  0  0  0  0  0  0  0  0  0
    6.3590   -1.8230   27.1200 C   0  0  0  0  0  0  0  0  0  0  0  0
    6.9270   -1.7120   28.3950 C   0  0  0  0  0  0  0  0  0  0  0  0
    7.0630   -0.5160   29.1520 C   0  0  0  0  0  0  0  0  0  0  0  0
    6.6190    0.6900   28.6500 C   0  0  0  0  0  0  0  0  0  0  0  0
    6.0220    0.6300   27.3200 C   0  0  0  0  0  0  0  0  0  0  0  0
    5.4370    1.7690   26.4750 C   0  0  0  0  0  0  0  0  0  0  0  0
    4.0490    1.7900   26.4170 O   0  0  0  0  0  0  0  0  0  0  0  0
    3.3250    0.7420   25.8090 C   0  0  0  0  0  0  0  0  0  0  0  0
    5.9050   -0.6320   26.5740 C   0  0  0  0  0  0  0  0  0  0  0  0
    6.0060   -4.0910   27.3950 C   0  0  0  0  0  0  0  0  0  0  0  0
    4.7240   -4.0560   28.1950 C   0  0  0  0  0  0  0  0  0  0  0  0
    4.6910   -5.0700   29.0490 C   0  0  0  0  0  0  0  0  0  0  0  0
    3.1850   -5.0180   29.9650 Cl  0  0  0  0  0  0  0  0  0  0  0  0
    5.4270   -6.1610   29.4730 N   0  0  0  0  0  0  0  0  0  0  0  0
    6.6200   -6.1250   28.6730 C   0  0  0  0  0  0  0  0  0  0  0  0
    6.8390   -5.1360   27.7140 N   0  0  0  0  0  0  0  0  0  0  0  0
    6.5740   -4.9760   23.9380 C   0  0  0  0  0  0  0  0  0  0  0  0
    6.6180   -5.4700   22.4880 C   0  0  0  0  0  0  0  0  0  0  0  0
  1  2  1  0
  2  3  2  0
  2  4  1  0
  4  5  1  0
  5  6  1  0
  6  7  1  0
  7  8  1  0
  8  9  2  0
  8 10  1  0
 10 11  1  0
 11 12  2  0
 12 13  1  0
 13 14  2  0
 14 15  1  0
 15 16  1  0
 16 17  1  0
 17 18  1  0
 11 19  1  0
 15 19  2  0
 10 20  1  0
 20 21  2  0
 21 22  1  0
 22 23  1  0
 22 24  2  0
 24 25  1  0
 20 26  1  0
 25 26  2  0
  7 27  1  0
  4 28  1  0
 27 28  1  0
M  END
