piperidine-amides-2283-covalent
     RDKit          3D

 27 28  0  0  0  0  0  0  0  0999 V2000
    7.0120   -3.2820   19.2490 C   0  0  0  0  0  0  0  0  0  0  0  0
    6.2660   -4.0850   20.2560 C   0  0  0  0  0  0  0  0  0  0  0  0
    5.2250   -4.6010   19.8830 O   0  0  0  0  0  0  0  0  0  0  0  0
    6.7570   -4.2780   21.5450 N   0  0  0  0  0  0  0  0  0  0  0  0
    6.5250   -5.5190   22.2390 C   0  0  0  0  0  0  0  0  0  0  0  0
    6.1860   -5.2520   23.6870 C   0  0  0  0  0  0  0  0  0  0  0  0
    5.7270   -3.8040   23.8700 C   0  0  0  0  0  0  0  0  0  0  0  0
    5.2190   -3.6040   25.2580 C   0  0  0  0  0  0  0  0  0  0  0  0
    4.0070   -3.7710   25.4520 O   0  0  0  0  0  0  0  0  0  0  0  0
    6.0160   -3.1990   26.3540 N   0  0  0  0  0  0  0  0  0  0  0  0
    6.6310   -4.1690   27.2380 C   0  0  2  0  0  0  0  0  0  0  0  0
    8.0860   -4.0860   26.8800 C   0  0  0  0  0  0  0  0  0  0  0  0
    8.4910   -3.3740   25.7730 C   0  0  0  0  0  0  0  0  0  0  0  0
    7.8660   -2.1980   25.5900 C   0  0  0  0  0  0  0  0  0  0  0  0
    8.2190   -1.4820   24.5380 C   0  0  0  0  0  0  0  0  0  0  0  0
    9.2160   -1.7490   23.5010 C   0  0  0  0  0  0  0  0  0  0  0  0
    9.8740   -3.0620   23.7660 C   0  0  0  0  0  0  0  0  0  0  0  0
    9.5780   -4.0350   24.9450 C   0  0  0  0  0  0  0  0  0  0  0  0
    6.3200   -5.6070   26.9770 C   0  0  0  0  0  0  0  0  0  0  0  0
    5.5970   -6.8020   27.0660 O   0  0  0  0  0  0  0  0  0  0  0  0
    5.3490   -5.3080   27.7350 O   0  0  0  0  0  0  0  0  0  0  0  0
    5.0550   -6.0430   28.9020 C   0  0  0  0  0  0  0  0  0  0  0  0
    4.1580   -7.2480   28.6400 C   0  0  0  0  0  0  0  0  0  0  0  0
    6.2810   -6.6150   29.5950 C   0  0  0  0  0  0  0  0  0  0  0  0
    4.3570   -5.1490   29.9250 C   0  0  0  0  0  0  0  0  0  0  0  0
    6.8850   -2.9060   23.5420 C   0  0  0  0  0  0  0  0  0  0  0  0
    7.4280   -3.1820   22.1660 C   0  0  0  0  0  0  0  0  0  0  0  0
  1  2  1  0
  2  3  2  0
  2  4  1  0
  4  5  1  0
  5  6  1  0
  6  7  1  0
  7  8  1  0
  8  9  2  0
  8 10  1  0
 10 11  1  0
 11 12  1  6
 12 13  1  0
 13 14  2  0
 14 15  1  0
 15 16  2  0
 16 17  1  0
 13 18  1  0
 17 18  2  0
 11 19  1  0
 19 20  2  0
 19 21  1  0
 22 21  1  0
 22 23  1  0
 22 24  1  0
 22 25  1  0
  7 26  1  0
  4 27  1  0
 26 27  1  0
M  END
