piperidine-amides-13207-covalent
     RDKit          3D

 19 20  0  0  0  0  0  0  0  0999 V2000
    7.0720   -3.3400   19.3530 C   0  0  0  0  0  0  0  0  0  0  0  0
    6.4260   -4.2000   20.3720 C   0  0  0  0  0  0  0  0  0  0  0  0
    5.4140   -4.8310   19.9890 O   0  0  0  0  0  0  0  0  0  0  0  0
    6.9600   -4.3280   21.6740 N   0  0  0  0  0  0  0  0  0  0  0  0
    7.6870   -3.2380   22.2560 C   0  0  0  0  0  0  0  0  0  0  0  0
    7.2630   -2.9410   23.6210 C   0  0  0  0  0  0  0  0  0  0  0  0
    6.0230   -3.6510   23.9880 C   0  0  0  0  0  0  0  0  0  0  0  0
    5.5580   -3.3200   25.3620 C   0  0  0  0  0  0  0  0  0  0  0  0
    4.3330   -3.3520   25.5680 O   0  0  0  0  0  0  0  0  0  0  0  0
    6.4240   -2.9680   26.4120 N   0  0  0  0  0  0  0  0  0  0  0  0
    6.8090   -1.5620   26.7030 C   0  0  0  0  0  0  0  0  0  0  0  0
    5.6800   -0.6060   26.8160 C   0  0  0  0  0  0  0  0  0  0  0  0
    5.8170   -0.5250   28.2190 N   0  0  0  0  0  0  0  0  0  0  0  0
    5.7370    0.7620   28.8710 C   0  0  0  0  0  0  0  0  0  0  0  0
    4.6970    1.4690   28.4020 N   0  0  0  0  0  0  0  0  0  0  0  0
    6.5060    1.2140   29.7800 O   0  0  0  0  0  0  0  0  0  0  0  0
    6.9240   -1.4170   28.1490 C   0  0  0  0  0  0  0  0  0  0  0  0
    6.0880   -5.1260   23.7200 C   0  0  0  0  0  0  0  0  0  0  0  0
    6.5410   -5.4490   22.4690 C   0  0  0  0  0  0  0  0  0  0  0  0
  1  2  1  0
  2  3  2  0
  2  4  1  0
  4  5  1  0
  5  6  1  0
  6  7  1  0
  7  8  1  0
  8  9  2  0
  8 10  1  0
 10 11  1  0
 11 12  1  0
 12 13  1  0
 13 14  1  0
 14 15  1  0
 14 16  2  0
 11 17  1  0
 13 17  1  0
  7 18  1  0
  4 19  1  0
 18 19  1  0
M  END
