piperidine-amides-28151-covalent
     RDKit          3D

 25 26  0  0  0  0  0  0  0  0999 V2000
    7.0110   -3.3820   19.3880 C   0  0  0  0  0  0  0  0  0  0  0  0
    6.3970   -4.2600   20.4100 C   0  0  0  0  0  0  0  0  0  0  0  0
    5.4250   -4.9370   20.0100 O   0  0  0  0  0  0  0  0  0  0  0  0
    6.9100   -4.3520   21.7300 N   0  0  0  0  0  0  0  0  0  0  0  0
    6.5870   -5.4750   22.5630 C   0  0  0  0  0  0  0  0  0  0  0  0
    6.0130   -5.0940   23.8670 C   0  0  0  0  0  0  0  0  0  0  0  0
    5.9470   -3.6280   24.0380 C   0  0  0  0  0  0  0  0  0  0  0  0
    5.1670   -3.1190   25.2370 C   0  0  0  0  0  0  0  0  0  0  0  0
    4.1940   -2.4060   24.9620 O   0  0  0  0  0  0  0  0  0  0  0  0
    5.4050   -3.3640   26.6150 N   0  0  0  0  0  0  0  0  0  0  0  0
    4.4780   -3.0640   27.6770 C   0  0  0  0  0  0  0  0  0  0  0  0
    4.6580   -4.2920   28.4540 C   0  0  2  0  0  0  0  0  0  0  0  0
    4.5120   -4.0780   29.8840 C   0  0  0  0  0  0  0  0  0  0  0  0
    4.6270   -2.8860   30.3310 O   0  0  0  0  0  0  0  0  0  0  0  0
    4.2450   -5.1240   30.7320 O   0  0  0  0  0  0  0  0  0  0  0  0
    3.3700   -5.0130   31.8560 C   0  0  0  0  0  0  0  0  0  0  0  0
    3.7490   -5.9900   32.7560 C   0  0  0  0  0  0  0  0  0  0  0  0
    5.7190   -5.0920   28.0740 C   0  0  1  0  0  0  0  0  0  0  0  0
    6.5730   -5.3420   29.0940 C   0  0  0  0  0  0  0  0  0  0  0  0
    5.2610   -6.2200   27.4220 C   0  0  0  0  0  0  0  0  0  0  0  0
    4.5010   -7.1230   28.1180 F   0  0  0  0  0  0  0  0  0  0  0  0
    4.5420   -5.9160   26.2790 F   0  0  0  0  0  0  0  0  0  0  0  0
    6.2910   -4.3100   27.0780 C   0  0  0  0  0  0  0  0  0  0  0  0
    7.2180   -2.9300   23.7430 C   0  0  0  0  0  0  0  0  0  0  0  0
    7.7240   -3.2890   22.3550 C   0  0  0  0  0  0  0  0  0  0  0  0
  1  2  1  0
  2  3  2  0
  2  4  1  0
  4  5  1  0
  5  6  1  0
  6  7  1  0
  7  8  1  0
  8  9  2  0
  8 10  1  0
 10 11  1  0
 11 12  1  0
 12 13  1  1
 13 14  2  0
 13 15  1  0
 15 16  1  0
 16 17  1  0
 12 18  1  0
 18 19  1  1
 18 20  1  0
 20 21  1  0
 20 22  1  0
 10 23  1  0
 18 23  1  0
  7 24  1  0
  4 25  1  0
 24 25  1  0
M  END
