piperidine-amides-12751-covalent
     RDKit          3D

 22 23  0  0  0  0  0  0  0  0999 V2000
    7.1570   -3.2300   19.1230 C   0  0  0  0  0  0  0  0  0  0  0  0
    6.3500   -3.9640   20.1280 C   0  0  0  0  0  0  0  0  0  0  0  0
    5.2230   -4.3540   19.7830 O   0  0  0  0  0  0  0  0  0  0  0  0
    6.8580   -4.2570   21.3900 N   0  0  0  0  0  0  0  0  0  0  0  0
    7.6270   -3.2580   22.0590 C   0  0  0  0  0  0  0  0  0  0  0  0
    7.2420   -2.9810   23.4380 C   0  0  0  0  0  0  0  0  0  0  0  0
    6.4610   -4.0320   24.1210 C   0  0  0  0  0  0  0  0  0  0  0  0
    5.8150   -3.4520   25.3100 C   0  0  0  0  0  0  0  0  0  0  0  0
    4.5680   -3.4070   25.3620 O   0  0  0  0  0  0  0  0  0  0  0  0
    6.6210   -2.9450   26.3390 N   0  0  0  0  0  0  0  0  0  0  0  0
    6.3890   -3.1930   27.7740 C   0  0  2  0  0  0  0  0  0  0  0  0
    5.5900   -4.4490   27.9280 C   0  0  0  0  0  0  0  0  0  0  0  0
    6.1180   -5.5900   27.8550 O   0  0  0  0  0  0  0  0  0  0  0  0
    6.9530   -5.8730   28.8090 C   0  0  0  0  0  0  0  0  0  0  0  0
    5.7210   -1.9610   28.1730 C   0  0  0  0  0  0  0  0  0  0  0  0
    5.7670   -1.5840   29.4850 C   0  0  0  0  0  0  0  0  0  0  0  0
    6.8740   -0.8900   29.8800 C   0  0  0  0  0  0  0  0  0  0  0  0
    7.0560    0.3030   29.1530 O   0  0  0  0  0  0  0  0  0  0  0  0
    6.2660    0.2920   28.0030 C   0  0  0  0  0  0  0  0  0  0  0  0
    6.1960   -0.9240   27.3700 C   0  0  0  0  0  0  0  0  0  0  0  0
    5.5120   -4.7340   23.2060 C   0  0  0  0  0  0  0  0  0  0  0  0
    6.3410   -5.3570   22.1600 C   0  0  0  0  0  0  0  0  0  0  0  0
  1  2  1  0
  2  3  2  0
  2  4  1  0
  4  5  1  0
  5  6  1  0
  6  7  1  0
  7  8  1  0
  8  9  2  0
  8 10  1  0
 10 11  1  0
 11 12  1  6
 12 13  1  0
 13 14  1  0
 11 15  1  0
 15 16  1  0
 16 17  1  0
 17 18  1  0
 18 19  1  0
 15 20  1  0
 19 20  1  0
  7 21  1  0
  4 22  1  0
 21 22  1  0
M  END
