piperidine-amides-11663-covalent
     RDKit          3D

 29 32  0  0  0  0  0  0  0  0999 V2000
    7.0530   -3.3230   19.3700 C   0  0  0  0  0  0  0  0  0  0  0  0
    6.3710   -4.1560   20.3560 C   0  0  0  0  0  0  0  0  0  0  0  0
    5.4240   -4.8610   19.9960 O   0  0  0  0  0  0  0  0  0  0  0  0
    6.8130   -4.1940   21.7310 N   0  0  0  0  0  0  0  0  0  0  0  0
    6.6290   -5.3970   22.5070 C   0  0  0  0  0  0  0  0  0  0  0  0
    6.1170   -5.0880   23.8970 C   0  0  0  0  0  0  0  0  0  0  0  0
    6.1720   -3.5820   24.1250 C   0  0  0  0  0  0  0  0  0  0  0  0
    5.7090   -3.2170   25.5060 C   0  0  0  0  0  0  0  0  0  0  0  0
    4.5120   -3.3540   25.8230 O   0  0  0  0  0  0  0  0  0  0  0  0
    6.6040   -2.6890   26.4910 N   0  0  0  0  0  0  0  0  0  0  0  0
    6.3740   -1.3220   26.9320 C   0  0  0  0  0  0  0  0  0  0  0  0
    5.8480   -0.2650   26.0120 C   0  0  0  0  0  0  0  0  0  0  0  0
    5.6290    1.0260   26.4450 C   0  0  0  0  0  0  0  0  0  0  0  0
    5.8870    1.4080   27.7620 C   0  0  0  0  0  0  0  0  0  0  0  0
    6.3680    0.5290   28.6810 C   0  0  0  0  0  0  0  0  0  0  0  0
    6.6410   -0.8420   28.3560 C   0  0  0  0  0  0  0  0  0  0  0  0
    7.1160   -1.6490   29.3070 C   0  0  0  0  0  0  0  0  0  0  0  0
    7.8720   -0.9280   30.2290 C   0  0  0  0  0  0  0  0  0  0  0  0
    7.4640    0.3500   30.6340 N   0  0  0  0  0  0  0  0  0  0  0  0
    7.1300    0.3710   31.9520 C   0  0  0  0  0  0  0  0  0  0  0  0
    8.0760    0.3300   33.0580 C   0  0  0  0  0  0  0  0  0  0  0  0
    7.7290    0.3300   34.3760 C   0  0  0  0  0  0  0  0  0  0  0  0
    6.3900    0.3740   34.7190 C   0  0  0  0  0  0  0  0  0  0  0  0
    5.9880    0.3670   36.1580 C   0  0  0  0  0  0  0  0  0  0  0  0
    5.5120    0.4190   33.6920 N   0  0  0  0  0  0  0  0  0  0  0  0
    5.8220    0.4180   32.3920 N   0  0  0  0  0  0  0  0  0  0  0  0
    6.5650    1.0300   29.9300 C   0  0  0  0  0  0  0  0  0  0  0  0
    7.4910   -3.0320   23.7080 C   0  0  0  0  0  0  0  0  0  0  0  0
    7.7140   -3.1640   22.2360 C   0  0  0  0  0  0  0  0  0  0  0  0
  1  2  1  0
  2  3  2  0
  2  4  1  0
  4  5  1  0
  5  6  1  0
  6  7  1  0
  7  8  1  0
  8  9  2  0
  8 10  1  0
 10 11  1  0
 11 12  2  0
 12 13  1  0
 13 14  2  0
 14 15  1  0
 11 16  1  0
 15 16  2  0
 16 17  1  0
 17 18  1  0
 18 19  1  0
 19 20  1  0
 20 21  2  0
 21 22  1  0
 22 23  2  0
 23 24  1  0
 23 25  1  0
 20 26  1  0
 25 26  2  0
 15 27  1  0
 19 27  1  0
  7 28  1  0
  4 29  1  0
 28 29  1  0
M  END
