piperidine-amides-12215-covalent
     RDKit          3D

 25 26  0  0  0  0  0  0  0  0999 V2000
    7.1510   -3.3030   19.2750 C   0  0  0  0  0  0  0  0  0  0  0  0
    6.3720   -4.0670   20.2410 C   0  0  0  0  0  0  0  0  0  0  0  0
    5.3090   -4.5840   19.9020 O   0  0  0  0  0  0  0  0  0  0  0  0
    6.8780   -4.2630   21.5660 N   0  0  0  0  0  0  0  0  0  0  0  0
    7.7270   -3.2620   22.1610 C   0  0  0  0  0  0  0  0  0  0  0  0
    7.0700   -2.7130   23.3850 C   0  0  0  0  0  0  0  0  0  0  0  0
    6.4880   -3.8770   24.1680 C   0  0  0  0  0  0  0  0  0  0  0  0
    5.6950   -3.3330   25.3120 C   0  0  0  0  0  0  0  0  0  0  0  0
    4.4590   -3.1840   25.2460 O   0  0  0  0  0  0  0  0  0  0  0  0
    6.3550   -2.9850   26.5140 N   0  0  0  0  0  0  0  0  0  0  0  0
    6.5890   -1.5880   26.8380 C   0  0  0  0  0  0  0  0  0  0  0  0
    5.6170   -0.7190   26.0740 C   0  0  0  0  0  0  0  0  0  0  0  0
    5.5060   -0.8300   24.6770 C   0  0  0  0  0  0  0  0  0  0  0  0
    4.6210   -0.0460   23.9080 C   0  0  0  0  0  0  0  0  0  0  0  0
    3.8410    0.8620   24.5530 C   0  0  0  0  0  0  0  0  0  0  0  0
    3.9810    0.9470   25.9680 C   0  0  0  0  0  0  0  0  0  0  0  0
    4.8190    0.2100   26.7430 C   0  0  0  0  0  0  0  0  0  0  0  0
    4.9270    0.3150   28.0490 O   0  0  0  0  0  0  0  0  0  0  0  0
    4.4260    0.9040   29.2470 C   0  0  0  0  0  0  0  0  0  0  0  0
    5.2460    1.9600   29.6600 C   0  0  0  0  0  0  0  0  0  0  0  0
    5.1800    3.1350   28.9870 F   0  0  0  0  0  0  0  0  0  0  0  0
    6.5700    1.6950   29.7150 F   0  0  0  0  0  0  0  0  0  0  0  0
    4.7930    2.3520   30.9170 F   0  0  0  0  0  0  0  0  0  0  0  0
    5.7140   -4.8540   23.4140 C   0  0  0  0  0  0  0  0  0  0  0  0
    6.4820   -5.3740   22.3830 C   0  0  0  0  0  0  0  0  0  0  0  0
  1  2  1  0
  2  3  2  0
  2  4  1  0
  4  5  1  0
  5  6  1  0
  6  7  1  0
  7  8  1  0
  8  9  2  0
  8 10  1  0
 10 11  1  0
 11 12  1  0
 12 13  2  0
 13 14  1  0
 14 15  2  0
 15 16  1  0
 12 17  1  0
 16 17  2  0
 17 18  1  0
 18 19  1  0
 19 20  1  0
 20 21  1  0
 20 22  1  0
 20 23  1  0
  7 24  1  0
  4 25  1  0
 24 25  1  0
M  END
