piperidine-amides-33710-covalent
     RDKit          3D

 25 26  0  0  0  0  0  0  0  0999 V2000
    7.1260   -3.3320   19.3210 C   0  0  0  0  0  0  0  0  0  0  0  0
    6.4360   -4.1740   20.3080 C   0  0  0  0  0  0  0  0  0  0  0  0
    5.3500   -4.6880   19.9450 O   0  0  0  0  0  0  0  0  0  0  0  0
    7.0060   -4.4560   21.5770 N   0  0  0  0  0  0  0  0  0  0  0  0
    6.4430   -5.4910   22.3520 C   0  0  0  0  0  0  0  0  0  0  0  0
    5.9460   -5.0530   23.6540 C   0  0  0  0  0  0  0  0  0  0  0  0
    6.6280   -3.8780   24.2600 C   0  0  0  0  0  0  0  0  0  0  0  0
    5.8310   -3.3110   25.3890 C   0  0  0  0  0  0  0  0  0  0  0  0
    4.7040   -2.8310   25.1660 O   0  0  0  0  0  0  0  0  0  0  0  0
    6.3250   -3.3030   26.6980 N   0  0  0  0  0  0  0  0  0  0  0  0
    6.7270   -4.4560   27.4420 C   0  0  0  0  0  0  0  0  0  0  0  0
    5.8560   -5.6000   27.6800 C   0  0  0  0  0  0  0  0  0  0  0  0
    4.6460   -5.3720   27.9960 O   0  0  0  0  0  0  0  0  0  0  0  0
    3.9700   -6.5250   28.3140 C   0  0  0  0  0  0  0  0  0  0  0  0
    3.1940   -6.2820   29.4300 C   0  0  0  0  0  0  0  0  0  0  0  0
    2.1590   -5.7010   29.0660 O   0  0  0  0  0  0  0  0  0  0  0  0
    6.3880   -1.9740   27.3730 C   0  0  0  0  0  0  0  0  0  0  0  0
    5.8320   -0.8660   26.5180 C   0  0  0  0  0  0  0  0  0  0  0  0
    5.9470    0.4240   27.3540 C   0  0  0  0  0  0  0  0  0  0  0  0
    6.4910    0.6400   28.7430 C   0  0  0  0  0  0  0  0  0  0  0  0
    6.5640    2.3070   29.6610 Br  0  0  0  0  0  0  0  0  0  0  0  0
    6.9930   -0.6490   29.3610 C   0  0  0  0  0  0  0  0  0  0  0  0
    6.9160   -1.8030   28.6880 N   0  0  0  0  0  0  0  0  0  0  0  0
    6.8720   -2.7590   23.2410 C   0  0  0  0  0  0  0  0  0  0  0  0
    7.7560   -3.3620   22.2230 C   0  0  0  0  0  0  0  0  0  0  0  0
  1  2  1  0
  2  3  2  0
  2  4  1  0
  4  5  1  0
  5  6  1  0
  6  7  1  0
  7  8  1  0
  8  9  2  0
  8 10  1  0
 10 11  1  0
 11 12  1  0
 12 13  1  0
 13 14  1  0
 14 15  1  0
 15 16  1  0
 10 17  1  0
 17 18  2  0
 18 19  1  0
 19 20  2  0
 20 21  1  0
 20 22  1  0
 17 23  1  0
 22 23  2  0
  7 24  1  0
  4 25  1  0
 24 25  1  0
M  END
