piperidine-amides-27886-covalent
     RDKit          3D

 26 28  0  0  0  0  0  0  0  0999 V2000
    7.0170   -3.3490   19.3370 C   0  0  0  0  0  0  0  0  0  0  0  0
    6.3910   -4.1990   20.3790 C   0  0  0  0  0  0  0  0  0  0  0  0
    5.4070   -4.8660   19.9930 O   0  0  0  0  0  0  0  0  0  0  0  0
    6.9000   -4.2770   21.6980 N   0  0  0  0  0  0  0  0  0  0  0  0
    6.5810   -5.4070   22.5190 C   0  0  0  0  0  0  0  0  0  0  0  0
    5.9640   -5.0240   23.7940 C   0  0  0  0  0  0  0  0  0  0  0  0
    5.9050   -3.5580   23.9410 C   0  0  0  0  0  0  0  0  0  0  0  0
    5.2330   -3.0370   25.1760 C   0  0  0  0  0  0  0  0  0  0  0  0
    4.4490   -2.0970   24.9960 O   0  0  0  0  0  0  0  0  0  0  0  0
    5.3820   -3.5020   26.5050 N   0  0  0  0  0  0  0  0  0  0  0  0
    4.1660   -3.6600   27.3200 C   0  0  0  0  0  0  0  0  0  0  0  0
    4.3800   -4.2430   28.6820 C   0  0  0  0  0  0  0  0  0  0  0  0
    5.7010   -4.5070   29.1960 C   0  0  0  0  0  0  0  0  0  0  0  0
    5.7870   -5.7410   29.7870 C   0  0  0  0  0  0  0  0  0  0  0  0
    6.6920   -6.5680   29.6540 O   0  0  0  0  0  0  0  0  0  0  0  0
    4.6380   -5.9140   30.5780 N   0  0  0  0  0  0  0  0  0  0  0  0
    4.6920   -6.6100   31.8510 C   0  0  0  0  0  0  0  0  0  0  0  0
    5.5300   -7.6660   31.9630 C   0  0  0  0  0  0  0  0  0  0  0  0
    5.6110   -8.3540   33.1370 C   0  0  0  0  0  0  0  0  0  0  0  0
    4.8890   -8.0540   34.2580 C   0  0  0  0  0  0  0  0  0  0  0  0
    4.0670   -7.0020   34.1290 N   0  0  0  0  0  0  0  0  0  0  0  0
    3.9660   -6.3050   32.9800 C   0  0  0  0  0  0  0  0  0  0  0  0
    6.6300   -4.3060   28.2780 C   0  0  0  0  0  0  0  0  0  0  0  0
    6.4360   -3.1760   27.2960 C   0  0  0  0  0  0  0  0  0  0  0  0
    7.2830   -2.9590   23.6340 C   0  0  0  0  0  0  0  0  0  0  0  0
    7.7000   -3.2050   22.2990 C   0  0  0  0  0  0  0  0  0  0  0  0
  1  2  1  0
  2  3  2  0
  2  4  1  0
  4  5  1  0
  5  6  1  0
  6  7  1  0
  7  8  1  0
  8  9  2  0
  8 10  1  0
 10 11  1  0
 11 12  1  0
 12 13  1  0
 13 14  1  0
 14 15  2  0
 14 16  1  0
 16 17  1  0
 17 18  2  0
 18 19  1  0
 19 20  2  0
 20 21  1  0
 17 22  1  0
 21 22  2  0
 13 23  1  0
 10 24  1  0
 23 24  1  0
  7 25  1  0
  4 26  1  0
 25 26  1  0
M  END
