piperidine-amides-6474-covalent
     RDKit          3D

 24 25  0  0  0  0  0  0  0  0999 V2000
    7.0780   -3.3400   19.3010 C   0  0  0  0  0  0  0  0  0  0  0  0
    6.4090   -4.1870   20.2970 C   0  0  0  0  0  0  0  0  0  0  0  0
    5.3800   -4.8260   19.9790 O   0  0  0  0  0  0  0  0  0  0  0  0
    6.9470   -4.3290   21.5840 N   0  0  0  0  0  0  0  0  0  0  0  0
    7.6800   -3.2270   22.1580 C   0  0  0  0  0  0  0  0  0  0  0  0
    6.7990   -2.6970   23.2840 C   0  0  0  0  0  0  0  0  0  0  0  0
    6.5870   -3.8650   24.2180 C   0  0  0  0  0  0  0  0  0  0  0  0
    5.7720   -3.4190   25.3680 C   0  0  0  0  0  0  0  0  0  0  0  0
    4.5320   -3.3600   25.2150 O   0  0  0  0  0  0  0  0  0  0  0  0
    6.3710   -3.0690   26.5990 N   0  0  0  0  0  0  0  0  0  0  0  0
    6.2320   -1.7060   27.0350 C   0  0  0  0  0  0  0  0  0  0  0  0
    7.0340   -1.3630   28.2900 C   0  0  0  0  0  0  0  0  0  0  0  0
    7.0310   -0.1070   28.8690 C   0  0  0  0  0  0  0  0  0  0  0  0
    7.7000    0.1880   29.8790 O   0  0  0  0  0  0  0  0  0  0  0  0
    7.0820    0.0270   31.0840 C   0  0  0  0  0  0  0  0  0  0  0  0
    5.7950   -0.4950   30.9560 C   0  0  0  0  0  0  0  0  0  0  0  0
    6.2390    0.8440   28.2440 C   0  0  0  0  0  0  0  0  0  0  0  0
    5.4490    0.5450   27.0280 C   0  0  0  0  0  0  0  0  0  0  0  0
    4.7150    1.5740   26.5170 O   0  0  0  0  0  0  0  0  0  0  0  0
    3.8330    1.1490   25.5470 C   0  0  0  0  0  0  0  0  0  0  0  0
    2.8580    2.2580   25.3240 C   0  0  0  0  0  0  0  0  0  0  0  0
    5.4540   -0.7330   26.4290 C   0  0  0  0  0  0  0  0  0  0  0  0
    5.8330   -4.9630   23.5150 C   0  0  0  0  0  0  0  0  0  0  0  0
    6.4860   -5.4000   22.3980 C   0  0  0  0  0  0  0  0  0  0  0  0
  1  2  1  0
  2  3  2  0
  2  4  1  0
  4  5  1  0
  5  6  1  0
  6  7  1  0
  7  8  1  0
  8  9  2  0
  8 10  1  0
 10 11  1  0
 11 12  2  0
 12 13  1  0
 13 14  1  0
 14 15  1  0
 15 16  1  0
 13 17  2  0
 17 18  1  0
 18 19  1  0
 19 20  1  0
 20 21  1  0
 11 22  1  0
 18 22  2  0
  7 23  1  0
  4 24  1  0
 23 24  1  0
M  END
