piperidine-amides-21671-covalent
     RDKit          3D

 23 25  0  0  0  0  0  0  0  0999 V2000
    7.0080   -3.3640   19.3820 C   0  0  0  0  0  0  0  0  0  0  0  0
    6.3680   -4.2220   20.3910 C   0  0  0  0  0  0  0  0  0  0  0  0
    5.3810   -4.8910   19.9900 O   0  0  0  0  0  0  0  0  0  0  0  0
    6.8630   -4.3120   21.7040 N   0  0  0  0  0  0  0  0  0  0  0  0
    6.7520   -5.5390   22.4720 C   0  0  0  0  0  0  0  0  0  0  0  0
    6.1380   -5.2050   23.8040 C   0  0  0  0  0  0  0  0  0  0  0  0
    6.1920   -3.7240   24.0380 C   0  0  0  0  0  0  0  0  0  0  0  0
    5.6220   -3.3260   25.3590 C   0  0  0  0  0  0  0  0  0  0  0  0
    4.6610   -2.5340   25.3280 O   0  0  0  0  0  0  0  0  0  0  0  0
    6.0390   -3.7700   26.6350 N   0  0  0  0  0  0  0  0  0  0  0  0
    5.5140   -5.0060   27.1600 C   0  0  0  0  0  0  0  0  0  0  0  0
    5.9740   -4.9290   28.5700 C   0  0  0  0  0  0  0  0  0  0  0  0
    6.5560   -3.7450   28.7700 C   0  0  0  0  0  0  0  0  0  0  0  0
    6.3730   -2.8400   27.7190 C   0  0  2  0  0  0  0  0  0  0  0  0
    5.3870   -1.8900   27.9070 C   0  0  0  0  0  0  0  0  0  0  0  0
    5.5690   -1.3180   29.1130 N   0  0  0  0  0  0  0  0  0  0  0  0
    4.7960   -1.1870   30.1840 C   0  0  0  0  0  0  0  0  0  0  0  0
    5.4150   -0.5310   31.1780 C   0  0  0  0  0  0  0  0  0  0  0  0
    4.8700   -0.1930   32.5430 C   0  0  0  0  0  0  0  0  0  0  0  0
    6.6430   -0.2420   30.6870 C   0  0  0  0  0  0  0  0  0  0  0  0
    6.7800   -0.7410   29.3390 N   0  0  0  0  0  0  0  0  0  0  0  0
    7.6040   -3.2050   23.7570 C   0  0  0  0  0  0  0  0  0  0  0  0
    7.6980   -3.2200   22.2340 C   0  0  0  0  0  0  0  0  0  0  0  0
  1  2  1  0
  2  3  2  0
  2  4  1  0
  4  5  1  0
  5  6  1  0
  6  7  1  0
  7  8  1  0
  8  9  2  0
  8 10  1  0
 10 11  1  0
 11 12  1  0
 12 13  1  0
 10 14  1  0
 13 14  1  0
 14 15  1  1
 15 16  1  0
 16 17  1  0
 17 18  2  0
 18 19  1  0
 18 20  1  0
 16 21  1  0
 20 21  2  0
  7 22  1  0
  4 23  1  0
 22 23  1  0
M  END
