piperidine-amides-19425-covalent
     RDKit          3D

 22 24  0  0  0  0  0  0  0  0999 V2000
    7.1210   -3.3680   19.4960 C   0  0  0  0  0  0  0  0  0  0  0  0
    6.3870   -4.1860   20.4300 C   0  0  0  0  0  0  0  0  0  0  0  0
    5.4180   -4.8880   19.9930 O   0  0  0  0  0  0  0  0  0  0  0  0
    6.7370   -4.2580   21.7970 N   0  0  0  0  0  0  0  0  0  0  0  0
    6.6150   -5.6100   22.3970 C   0  0  0  0  0  0  0  0  0  0  0  0
    6.2460   -5.2890   23.9040 C   0  0  0  0  0  0  0  0  0  0  0  0
    6.0840   -3.7950   23.9860 C   0  0  0  0  0  0  0  0  0  0  0  0
    5.0780   -3.2940   25.1340 C   0  0  0  0  0  0  0  0  0  0  0  0
    4.0330   -2.9470   24.6190 O   0  0  0  0  0  0  0  0  0  0  0  0
    5.5820   -3.3660   26.2990 N   0  0  0  0  0  0  0  0  0  0  0  0
    6.4570   -3.4730   27.2760 C   0  0  0  0  0  0  0  0  0  0  0  0
    6.7770   -4.4510   28.1710 C   0  0  0  0  0  0  0  0  0  0  0  0
    5.7730   -4.4220   29.0630 C   0  0  0  0  0  0  0  0  0  0  0  0
    4.5130   -4.0390   28.4310 C   0  0  2  0  0  0  0  0  0  0  0  0
    4.2360   -5.5190   28.1360 C   0  0  0  0  0  0  0  0  0  0  0  0
    3.7550   -6.1200   29.2210 C   0  0  0  0  0  0  0  0  0  0  0  0
    3.5950   -7.3810   28.7050 C   0  0  0  0  0  0  0  0  0  0  0  0
    3.9780   -7.4640   27.3720 N   0  0  0  0  0  0  0  0  0  0  0  0
    4.4050   -6.1950   27.0210 N   0  0  0  0  0  0  0  0  0  0  0  0
    4.5760   -3.1010   27.2990 C   0  0  0  0  0  0  0  0  0  0  0  0
    7.3580   -3.0800   23.6770 C   0  0  0  0  0  0  0  0  0  0  0  0
    7.6500   -3.2830   22.3470 C   0  0  0  0  0  0  0  0  0  0  0  0
  1  2  1  0
  2  3  2  0
  2  4  1  0
  4  5  1  0
  5  6  1  0
  6  7  1  0
  7  8  1  0
  8  9  2  0
  8 10  1  0
 10 11  1  0
 11 12  1  0
 12 13  1  0
 13 14  1  0
 14 15  1  6
 15 16  2  0
 16 17  1  0
 17 18  2  0
 15 19  1  0
 18 19  1  0
 10 20  1  0
 14 20  1  0
  7 21  1  0
  4 22  1  0
 21 22  1  0
M  END
