piperidine-amides-3298-covalent
     RDKit          3D

 22 23  0  0  0  0  0  0  0  0999 V2000
    7.1090   -3.3160   19.2540 C   0  0  0  0  0  0  0  0  0  0  0  0
    6.3280   -4.0390   20.2490 C   0  0  0  0  0  0  0  0  0  0  0  0
    5.2900   -4.6060   19.9100 O   0  0  0  0  0  0  0  0  0  0  0  0
    6.7990   -4.1400   21.6060 N   0  0  0  0  0  0  0  0  0  0  0  0
    7.6800   -3.1160   22.1320 C   0  0  0  0  0  0  0  0  0  0  0  0
    7.3900   -2.8510   23.5830 C   0  0  0  0  0  0  0  0  0  0  0  0
    6.0960   -3.5730   23.9050 C   0  0  0  0  0  0  0  0  0  0  0  0
    5.6310   -3.2030   25.2720 C   0  0  0  0  0  0  0  0  0  0  0  0
    4.4490   -2.8870   25.4960 O   0  0  0  0  0  0  0  0  0  0  0  0
    6.5470   -3.2010   26.3440 N   0  0  0  0  0  0  0  0  0  0  0  0
    6.1790   -3.8300   27.6010 C   0  0  0  0  0  0  0  0  0  0  0  0
    5.9450   -5.3130   27.3810 C   0  0  0  0  0  0  0  0  0  0  0  0
    4.8110   -5.9470   27.7590 N   0  0  0  0  0  0  0  0  0  0  0  0
    5.0510   -6.6970   28.8520 C   0  0  0  0  0  0  0  0  0  0  0  0
    4.0560   -7.3620   29.5570 C   0  0  0  0  0  0  0  0  0  0  0  0
    2.8200   -7.3410   28.9720 C   0  0  0  0  0  0  0  0  0  0  0  0
    2.7370   -6.7360   27.6510 C   0  0  0  0  0  0  0  0  0  0  0  0
    3.7680   -6.3300   26.8170 C   0  0  1  0  0  0  0  0  0  0  0  0
    3.6010   -5.3760   25.8330 C   0  0  0  0  0  0  0  0  0  0  0  0
    2.9490   -5.7860   24.6670 C   0  0  0  0  0  0  0  0  0  0  0  0
    6.1160   -5.0020   23.6640 C   0  0  0  0  0  0  0  0  0  0  0  0
    6.5820   -5.3240   22.4010 C   0  0  0  0  0  0  0  0  0  0  0  0
  1  2  1  0
  2  3  2  0
  2  4  1  0
  4  5  1  0
  5  6  1  0
  6  7  1  0
  7  8  1  0
  8  9  2  0
  8 10  1  0
 10 11  1  0
 11 12  1  0
 12 13  1  0
 13 14  1  0
 14 15  1  0
 15 16  1  0
 16 17  1  0
 13 18  1  0
 17 18  1  0
 18 19  1  1
 19 20  1  0
  7 21  1  0
  4 22  1  0
 21 22  1  0
M  END
