piperidine-amides-348-covalent
     RDKit          3D

 29 31  0  0  0  0  0  0  0  0999 V2000
    7.1020   -3.3180   19.3800 C   0  0  0  0  0  0  0  0  0  0  0  0
    6.3890   -4.1190   20.3520 C   0  0  0  0  0  0  0  0  0  0  0  0
    5.4060   -4.8310   19.9730 O   0  0  0  0  0  0  0  0  0  0  0  0
    6.7870   -4.1400   21.6970 N   0  0  0  0  0  0  0  0  0  0  0  0
    6.6690   -5.4330   22.4130 C   0  0  0  0  0  0  0  0  0  0  0  0
    5.8010   -5.0460   23.6830 C   0  0  0  0  0  0  0  0  0  0  0  0
    6.2020   -3.6460   24.1080 C   0  0  0  0  0  0  0  0  0  0  0  0
    5.6980   -3.3150   25.5830 C   0  0  0  0  0  0  0  0  0  0  0  0
    4.7600   -4.0350   25.8860 O   0  0  0  0  0  0  0  0  0  0  0  0
    6.4010   -2.3600   26.0590 N   0  0  0  0  0  0  0  0  0  0  0  0
    7.0890   -1.2760   26.5280 C   0  0  0  0  0  0  0  0  0  0  0  0
    6.8980    0.0980   26.5980 C   0  0  0  0  0  0  0  0  0  0  0  0
    6.3260    0.6110   27.7990 C   0  0  0  0  0  0  0  0  0  0  0  0
    6.8010    0.1360   28.9460 N   0  0  0  0  0  0  0  0  0  0  0  0
    7.8700    0.8800   29.4290 C   0  0  0  0  0  0  0  0  0  0  0  0
    8.2560    2.0980   28.8710 O   0  0  0  0  0  0  0  0  0  0  0  0
    8.6020    0.2460   30.6320 C   0  0  0  0  0  0  0  0  0  0  0  0
    9.2670    1.4370   30.9260 C   0  0  0  0  0  0  0  0  0  0  0  0
   10.5890    1.4070   30.2880 C   0  0  0  0  0  0  0  0  0  0  0  0
   11.2330    2.7760   30.6850 C   0  0  0  0  0  0  0  0  0  0  0  0
   10.6390    3.9030   31.5470 C   0  0  0  0  0  0  0  0  0  0  0  0
    9.4550    3.8500   32.0810 C   0  0  0  0  0  0  0  0  0  0  0  0
    8.8070    4.7680   32.8630 O   0  0  0  0  0  0  0  0  0  0  0  0
    7.5580    4.4670   33.4320 C   0  0  0  0  0  0  0  0  0  0  0  0
    8.7980    2.5960   31.7450 C   0  0  0  0  0  0  0  0  0  0  0  0
    6.9150   -1.2860   29.0040 C   0  0  0  0  0  0  0  0  0  0  0  0
    7.6290   -1.6570   27.8730 C   0  0  0  0  0  0  0  0  0  0  0  0
    7.5460   -3.1510   23.7200 C   0  0  0  0  0  0  0  0  0  0  0  0
    7.7330   -3.2100   22.2480 C   0  0  0  0  0  0  0  0  0  0  0  0
  1  2  1  0
  2  3  2  0
  2  4  1  0
  4  5  1  0
  5  6  1  0
  6  7  1  0
  7  8  1  0
  8  9  2  0
  8 10  1  0
 10 11  1  0
 11 12  1  0
 12 13  1  0
 13 14  1  0
 14 15  1  0
 15 16  2  0
 15 17  1  0
 17 18  1  0
 18 19  2  0
 19 20  1  0
 20 21  2  0
 21 22  1  0
 22 23  1  0
 23 24  1  0
 18 25  1  0
 22 25  2  0
 14 26  1  0
 11 27  1  0
 26 27  1  0
  7 28  1  0
  4 29  1  0
 28 29  1  0
M  END
