piperidine-amides-1306-covalent
     RDKit          3D

 22 23  0  0  0  0  0  0  0  0999 V2000
    7.1060   -3.3430   19.3100 C   0  0  0  0  0  0  0  0  0  0  0  0
    6.3790   -4.1710   20.3080 C   0  0  0  0  0  0  0  0  0  0  0  0
    5.3430   -4.7590   19.9600 O   0  0  0  0  0  0  0  0  0  0  0  0
    6.9280   -4.3080   21.5990 N   0  0  0  0  0  0  0  0  0  0  0  0
    7.7170   -3.2800   22.2340 C   0  0  0  0  0  0  0  0  0  0  0  0
    6.8320   -2.6670   23.3170 C   0  0  0  0  0  0  0  0  0  0  0  0
    6.4700   -3.7710   24.2490 C   0  0  0  0  0  0  0  0  0  0  0  0
    5.6720   -3.2920   25.4010 C   0  0  0  0  0  0  0  0  0  0  0  0
    4.4450   -3.2810   25.2500 O   0  0  0  0  0  0  0  0  0  0  0  0
    6.2960   -2.8750   26.5810 N   0  0  0  0  0  0  0  0  0  0  0  0
    6.5640   -1.5300   26.9740 C   0  0  1  0  0  0  0  0  0  0  0  0
    5.6570   -0.5230   26.7660 C   0  0  0  0  0  0  0  0  0  0  0  0
    5.7770    0.6830   27.4700 C   0  0  0  0  0  0  0  0  0  0  0  0
    6.1750    0.6500   28.7920 C   0  0  1  0  0  0  0  0  0  0  0  0
    5.2660    1.3690   29.7250 C   0  0  0  0  0  0  0  0  0  0  0  0
    4.7820    2.5570   29.3640 O   0  0  0  0  0  0  0  0  0  0  0  0
    4.9360    0.8050   30.9490 O   0  0  0  0  0  0  0  0  0  0  0  0
    4.1440   -0.3670   31.0400 C   0  0  0  0  0  0  0  0  0  0  0  0
    6.6230   -0.5850   29.2080 C   0  0  0  0  0  0  0  0  0  0  0  0
    7.1210   -1.4210   28.2400 C   0  0  0  0  0  0  0  0  0  0  0  0
    5.7530   -4.9210   23.6180 C   0  0  0  0  0  0  0  0  0  0  0  0
    6.5220   -5.4270   22.4110 C   0  0  0  0  0  0  0  0  0  0  0  0
  1  2  1  0
  2  3  2  0
  2  4  1  0
  4  5  1  0
  5  6  1  0
  6  7  1  0
  7  8  1  0
  8  9  2  0
  8 10  1  0
 11 10  1  1
 11 12  1  0
 12 13  1  0
 13 14  1  0
 14 15  1  1
 15 16  2  0
 15 17  1  0
 17 18  1  0
 14 19  1  0
 11 20  1  0
 19 20  1  0
  7 21  1  0
  4 22  1  0
 21 22  1  0
M  END
