piperidine-amides-30220-covalent
     RDKit          3D

 27 30  0  0  0  0  0  0  0  0999 V2000
    7.0910   -3.3910   19.3460 C   0  0  0  0  0  0  0  0  0  0  0  0
    6.3820   -4.2020   20.3220 C   0  0  0  0  0  0  0  0  0  0  0  0
    5.3740   -4.8210   19.9860 O   0  0  0  0  0  0  0  0  0  0  0  0
    6.9070   -4.3140   21.6580 N   0  0  0  0  0  0  0  0  0  0  0  0
    7.7720   -3.2730   22.1750 C   0  0  0  0  0  0  0  0  0  0  0  0
    7.5750   -3.1200   23.6520 C   0  0  0  0  0  0  0  0  0  0  0  0
    6.1930   -3.6500   23.9260 C   0  0  0  0  0  0  0  0  0  0  0  0
    5.6420   -3.1640   25.2200 C   0  0  0  0  0  0  0  0  0  0  0  0
    4.9980   -2.1080   25.2840 O   0  0  0  0  0  0  0  0  0  0  0  0
    5.7990   -3.8860   26.4090 N   0  0  0  0  0  0  0  0  0  0  0  0
    6.3370   -3.1430   27.4920 C   0  0  0  0  0  0  0  0  0  0  0  0
    6.7690   -4.1690   28.4920 C   0  0  0  0  0  0  0  0  0  0  0  0
    5.9250   -4.4440   29.5020 C   0  0  0  0  0  0  0  0  0  0  0  0
    4.6260   -4.8010   29.0850 N   0  0  0  0  0  0  0  0  0  0  0  0
    3.6050   -3.8910   29.5170 C   0  0  0  0  0  0  0  0  0  0  0  0
    3.2090   -4.0600   30.8320 C   0  0  0  0  0  0  0  0  0  0  0  0
    3.0900   -2.8470   31.6000 N   0  0  0  0  0  0  0  0  0  0  0  0
    2.7070   -3.2570   32.8030 O   0  0  0  0  0  0  0  0  0  0  0  0
    2.5940   -4.6440   32.7780 C   0  0  0  0  0  0  0  0  0  0  0  0
    2.2040   -5.3070   33.9230 C   0  0  0  0  0  0  0  0  0  0  0  0
    1.8400   -6.4900   33.9170 C   0  0  0  0  0  0  0  0  0  0  0  0
    3.2430   -6.4750   34.2290 C   0  0  0  0  0  0  0  0  0  0  0  0
    2.9080   -5.1470   31.5450 N   0  0  0  0  0  0  0  0  0  0  0  0
    4.7960   -5.4110   27.9060 C   0  0  0  0  0  0  0  0  0  0  0  0
    4.7590   -4.7990   26.6710 C   0  0  0  0  0  0  0  0  0  0  0  0
    6.1750   -5.1430   23.7970 C   0  0  0  0  0  0  0  0  0  0  0  0
    6.6060   -5.4940   22.4070 C   0  0  0  0  0  0  0  0  0  0  0  0
  1  2  1  0
  2  3  2  0
  2  4  1  0
  4  5  1  0
  5  6  1  0
  6  7  1  0
  7  8  1  0
  8  9  2  0
  8 10  1  0
 10 11  1  0
 11 12  1  0
 12 13  1  0
 13 14  1  0
 14 15  1  0
 15 16  1  0
 16 17  2  0
 17 18  1  0
 18 19  1  0
 19 20  1  0
 20 21  1  0
 20 22  1  0
 21 22  1  0
 16 23  1  0
 19 23  2  0
 14 24  1  0
 10 25  1  0
 24 25  1  0
  7 26  1  0
  4 27  1  0
 26 27  1  0
M  END
