piperidine-amides-19456-covalent
     RDKit          3D

 22 23  0  0  0  0  0  0  0  0999 V2000
    7.0580   -3.4360   19.4040 C   0  0  0  0  0  0  0  0  0  0  0  0
    6.3850   -4.2160   20.4180 C   0  0  0  0  0  0  0  0  0  0  0  0
    5.4080   -4.9220   20.0140 O   0  0  0  0  0  0  0  0  0  0  0  0
    6.7860   -4.2690   21.7830 N   0  0  0  0  0  0  0  0  0  0  0  0
    6.4940   -5.4800   22.5600 C   0  0  0  0  0  0  0  0  0  0  0  0
    5.5610   -4.8400   23.6650 C   0  0  0  0  0  0  0  0  0  0  0  0
    6.2860   -3.6680   24.3320 C   0  0  0  0  0  0  0  0  0  0  0  0
    5.2530   -2.8240   25.2220 C   0  0  0  0  0  0  0  0  0  0  0  0
    4.5750   -2.1120   24.5070 O   0  0  0  0  0  0  0  0  0  0  0  0
    5.3780   -3.1050   26.4570 N   0  0  0  0  0  0  0  0  0  0  0  0
    5.4260   -3.9360   27.5460 C   0  0  0  0  0  0  0  0  0  0  0  0
    5.5700   -1.8110   27.0790 C   0  0  0  0  0  0  0  0  0  0  0  0
    5.6810   -1.6570   28.4880 C   0  0  0  0  0  0  0  0  0  0  0  0
    5.9090   -0.5370   29.3630 C   0  0  0  0  0  0  0  0  0  0  0  0
    6.0280    0.6850   28.5070 C   0  0  0  0  0  0  0  0  0  0  0  0
    6.2560    1.9080   29.1730 O   0  0  0  0  0  0  0  0  0  0  0  0
    5.4320    2.3310   30.2410 C   0  0  0  0  0  0  0  0  0  0  0  0
    4.4720    1.3500   30.5390 C   0  0  0  0  0  0  0  0  0  0  0  0
    5.9580    0.9250   27.0440 C   0  0  0  0  0  0  0  0  0  0  0  0
    5.7080   -0.4820   26.3060 C   0  0  0  0  0  0  0  0  0  0  0  0
    6.9440   -2.6760   23.3340 C   0  0  0  0  0  0  0  0  0  0  0  0
    7.7040   -3.3480   22.4120 C   0  0  0  0  0  0  0  0  0  0  0  0
  1  2  1  0
  2  3  2  0
  2  4  1  0
  4  5  1  0
  5  6  1  0
  6  7  1  0
  7  8  1  0
  8  9  2  0
  8 10  1  0
 10 11  1  0
 10 12  1  0
 12 13  2  0
 13 14  1  0
 14 15  2  0
 15 16  1  0
 16 17  1  0
 17 18  1  0
 15 19  1  0
 12 20  1  0
 19 20  2  0
  7 21  1  0
  4 22  1  0
 21 22  1  0
M  END
