piperidine-amides-5199-covalent
     RDKit          3D

 21 22  0  0  0  0  0  0  0  0999 V2000
    7.1040   -3.2740   19.1390 C   0  0  0  0  0  0  0  0  0  0  0  0
    6.3400   -3.9970   20.1820 C   0  0  0  0  0  0  0  0  0  0  0  0
    5.2410   -4.4670   19.8410 O   0  0  0  0  0  0  0  0  0  0  0  0
    6.8580   -4.1980   21.4660 N   0  0  0  0  0  0  0  0  0  0  0  0
    7.6320   -3.1700   22.0820 C   0  0  0  0  0  0  0  0  0  0  0  0
    7.3170   -2.9040   23.4810 C   0  0  0  0  0  0  0  0  0  0  0  0
    6.5180   -3.9350   24.1770 C   0  0  0  0  0  0  0  0  0  0  0  0
    5.8790   -3.3020   25.3510 C   0  0  0  0  0  0  0  0  0  0  0  0
    4.6560   -3.4580   25.5350 O   0  0  0  0  0  0  0  0  0  0  0  0
    6.6600   -2.5300   26.2300 N   0  0  0  0  0  0  0  0  0  0  0  0
    6.1220   -1.8530   27.4220 C   0  0  0  0  0  0  0  0  0  0  0  0
    6.0750   -0.3780   27.2390 C   0  0  0  0  0  0  0  0  0  0  0  0
    5.8640    0.2950   25.9900 C   0  0  0  0  0  0  0  0  0  0  0  0
    5.8380    1.6420   25.8940 C   0  0  0  0  0  0  0  0  0  0  0  0
    6.0180    2.4100   27.0260 C   0  0  0  0  0  0  0  0  0  0  0  0
    5.9720    4.3110   26.8130 Br  0  0  0  0  0  0  0  0  0  0  0  0
    6.2250    1.8410   28.2680 C   0  0  0  0  0  0  0  0  0  0  0  0
    6.2710    0.4690   28.4900 C   0  0  0  0  0  0  0  0  0  0  0  0
    6.5550   -0.3870   30.1870 Br  0  0  0  0  0  0  0  0  0  0  0  0
    5.6130   -4.7490   23.3370 C   0  0  0  0  0  0  0  0  0  0  0  0
    6.3490   -5.2720   22.2750 C   0  0  0  0  0  0  0  0  0  0  0  0
  1  2  1  0
  2  3  2  0
  2  4  1  0
  4  5  1  0
  5  6  1  0
  6  7  1  0
  7  8  1  0
  8  9  2  0
  8 10  1  0
 10 11  1  0
 11 12  1  0
 12 13  2  0
 13 14  1  0
 14 15  2  0
 15 16  1  0
 15 17  1  0
 12 18  1  0
 17 18  2  0
 18 19  1  0
  7 20  1  0
  4 21  1  0
 20 21  1  0
M  END
