piperidine-amides-26198-covalent
     RDKit          3D

 25 26  0  0  0  0  0  0  0  0999 V2000
    7.1250   -3.2550   19.1610 C   0  0  0  0  0  0  0  0  0  0  0  0
    6.3470   -3.9850   20.1670 C   0  0  0  0  0  0  0  0  0  0  0  0
    5.2540   -4.4830   19.8490 O   0  0  0  0  0  0  0  0  0  0  0  0
    6.8310   -4.1820   21.4600 N   0  0  0  0  0  0  0  0  0  0  0  0
    6.5750   -5.4060   22.1820 C   0  0  0  0  0  0  0  0  0  0  0  0
    5.8210   -4.9840   23.4140 C   0  0  0  0  0  0  0  0  0  0  0  0
    6.5600   -3.9160   24.1650 C   0  0  0  0  0  0  0  0  0  0  0  0
    5.6970   -3.3070   25.2000 C   0  0  0  0  0  0  0  0  0  0  0  0
    4.6580   -2.6700   24.8680 O   0  0  0  0  0  0  0  0  0  0  0  0
    5.9710   -3.4210   26.5710 N   0  0  0  0  0  0  0  0  0  0  0  0
    6.4950   -2.2270   27.2950 C   0  0  0  0  0  0  0  0  0  0  0  0
    5.3830   -1.3570   27.7450 C   0  0  0  0  0  0  0  0  0  0  0  0
    4.4070   -0.8290   26.7780 C   0  0  0  0  0  0  0  0  0  0  0  0
    3.2950    0.0540   27.2780 C   0  0  0  0  0  0  0  0  0  0  0  0
    3.1950    0.3840   28.7560 C   0  0  0  0  0  0  0  0  0  0  0  0
    4.2740   -0.2430   29.5670 C   0  0  0  0  0  0  0  0  0  0  0  0
    5.2720   -1.0430   29.0700 C   0  0  0  0  0  0  0  0  0  0  0  0
    5.8350   -4.6850   27.2370 C   0  0  2  0  0  0  0  0  0  0  0  0
    4.4380   -5.2080   27.2730 C   0  0  0  0  0  0  0  0  0  0  0  0
    3.9190   -5.4760   28.5280 O   0  0  0  0  0  0  0  0  0  0  0  0
    6.3040   -4.7150   28.6380 C   0  0  0  0  0  0  0  0  0  0  0  0
    5.3550   -3.9200   29.4910 C   0  0  0  0  0  0  0  0  0  0  0  0
    6.3840   -5.9460   29.2330 C   0  0  0  0  0  0  0  0  0  0  0  0
    7.1410   -2.8230   23.3680 C   0  0  0  0  0  0  0  0  0  0  0  0
    7.5990   -3.1790   22.1280 C   0  0  0  0  0  0  0  0  0  0  0  0
  1  2  1  0
  2  3  2  0
  2  4  1  0
  4  5  1  0
  5  6  1  0
  6  7  1  0
  7  8  1  0
  8  9  2  0
  8 10  1  0
 10 11  1  0
 11 12  1  0
 12 13  2  0
 13 14  1  0
 14 15  2  0
 15 16  1  0
 12 17  1  0
 16 17  2  0
 10 18  1  0
 18 19  1  1
 19 20  1  0
 18 21  1  0
 21 22  1  0
 21 23  1  0
  7 24  1  0
  4 25  1  0
 24 25  1  0
M  END
