piperidine-amides-30907-covalent
     RDKit          3D

 27 28  0  0  0  0  0  0  0  0999 V2000
    7.1250   -3.2630   19.1740 C   0  0  0  0  0  0  0  0  0  0  0  0
    6.3530   -3.9860   20.1880 C   0  0  0  0  0  0  0  0  0  0  0  0
    5.2810   -4.5190   19.8720 O   0  0  0  0  0  0  0  0  0  0  0  0
    6.8380   -4.1340   21.4920 N   0  0  0  0  0  0  0  0  0  0  0  0
    7.6910   -3.1370   22.0910 C   0  0  0  0  0  0  0  0  0  0  0  0
    6.9100   -2.6030   23.2550 C   0  0  0  0  0  0  0  0  0  0  0  0
    6.4920   -3.7250   24.1480 C   0  0  0  0  0  0  0  0  0  0  0  0
    5.5690   -3.2720   25.2090 C   0  0  0  0  0  0  0  0  0  0  0  0
    4.5180   -2.6350   24.9130 O   0  0  0  0  0  0  0  0  0  0  0  0
    5.8050   -3.5200   26.5700 N   0  0  0  0  0  0  0  0  0  0  0  0
    6.4540   -2.5200   27.3760 C   0  0  0  0  0  0  0  0  0  0  0  0
    6.7730   -3.2420   28.6280 C   0  0  0  0  0  0  0  0  0  0  0  0
    5.6430   -3.9150   29.2660 C   0  0  0  0  0  0  0  0  0  0  0  0
    4.5420   -2.9780   29.7260 C   0  0  0  0  0  0  0  0  0  0  0  0
    4.7030   -1.7080   29.2290 O   0  0  0  0  0  0  0  0  0  0  0  0
    3.4290   -3.2650   30.5860 N   0  0  0  0  0  0  0  0  0  0  0  0
    3.0410   -1.9610   31.1560 C   0  0  0  0  0  0  0  0  0  0  0  0
    4.1080   -1.5690   32.1130 C   0  0  0  0  0  0  0  0  0  0  0  0
    3.8660   -0.3520   32.7030 C   0  0  0  0  0  0  0  0  0  0  0  0
    4.8190    0.3540   33.0970 O   0  0  0  0  0  0  0  0  0  0  0  0
    5.5930   -0.1600   34.1300 C   0  0  0  0  0  0  0  0  0  0  0  0
    5.4760    0.4250   35.5210 C   0  0  0  0  0  0  0  0  0  0  0  0
    7.0240   -0.0190   33.7130 C   0  0  0  0  0  0  0  0  0  0  0  0
    5.4020   -4.8810   28.1590 C   0  0  0  0  0  0  0  0  0  0  0  0
    4.8380   -4.3120   27.2660 C   0  0  0  0  0  0  0  0  0  0  0  0
    5.9090   -4.9170   23.4960 C   0  0  0  0  0  0  0  0  0  0  0  0
    6.4980   -5.2610   22.3000 C   0  0  0  0  0  0  0  0  0  0  0  0
  1  2  1  0
  2  3  2  0
  2  4  1  0
  4  5  1  0
  5  6  1  0
  6  7  1  0
  7  8  1  0
  8  9  2  0
  8 10  1  0
 10 11  1  0
 11 12  1  0
 12 13  1  0
 13 14  1  0
 14 15  2  0
 14 16  1  0
 16 17  1  0
 17 18  1  0
 18 19  1  0
 19 20  1  0
 20 21  1  0
 21 22  1  0
 21 23  1  0
 13 24  1  0
 10 25  1  0
 24 25  1  0
  7 26  1  0
  4 27  1  0
 26 27  1  0
M  END
