piperidine-amides-8230-covalent
     RDKit          3D

 25 26  0  0  0  0  0  0  0  0999 V2000
    7.1080   -3.3010   19.2460 C   0  0  0  0  0  0  0  0  0  0  0  0
    6.3560   -4.0520   20.2420 C   0  0  0  0  0  0  0  0  0  0  0  0
    5.2810   -4.5640   19.8940 O   0  0  0  0  0  0  0  0  0  0  0  0
    6.8820   -4.2250   21.5410 N   0  0  0  0  0  0  0  0  0  0  0  0
    6.4280   -5.3430   22.3010 C   0  0  0  0  0  0  0  0  0  0  0  0
    5.5890   -4.8280   23.4320 C   0  0  0  0  0  0  0  0  0  0  0  0
    6.4650   -3.8790   24.2270 C   0  0  0  0  0  0  0  0  0  0  0  0
    5.7160   -3.3390   25.4140 C   0  0  0  0  0  0  0  0  0  0  0  0
    4.7600   -2.6130   25.1470 O   0  0  0  0  0  0  0  0  0  0  0  0
    6.1250   -3.6690   26.7110 N   0  0  0  0  0  0  0  0  0  0  0  0
    6.1270   -5.0080   27.2190 C   0  0  0  0  0  0  0  0  0  0  0  0
    5.0100   -5.4310   27.9110 C   0  0  0  0  0  0  0  0  0  0  0  0
    3.7360   -5.1660   27.4500 C   0  0  0  0  0  0  0  0  0  0  0  0
    2.7930   -4.6580   28.3460 C   0  0  0  0  0  0  0  0  0  0  0  0
    1.4100   -4.3720   27.8350 C   0  0  0  0  0  0  0  0  0  0  0  0
    1.0060   -4.6170   26.3740 C   0  0  0  0  0  0  0  0  0  0  0  0
    2.1130   -5.1520   25.5680 C   0  0  0  0  0  0  0  0  0  0  0  0
    1.7900   -5.4150   24.1180 C   0  0  0  0  0  0  0  0  0  0  0  0
    2.6480   -5.2610   23.2150 O   0  0  0  0  0  0  0  0  0  0  0  0
    0.5790   -5.8280   23.6880 N   0  0  0  0  0  0  0  0  0  0  0  0
    0.3750   -6.5080   22.4480 C   0  0  0  0  0  0  0  0  0  0  0  0
   -0.4030   -4.8270   24.0210 C   0  0  0  0  0  0  0  0  0  0  0  0
    3.3750   -5.3910   26.1310 C   0  0  0  0  0  0  0  0  0  0  0  0
    6.9520   -2.7150   23.4230 C   0  0  0  0  0  0  0  0  0  0  0  0
    7.6520   -3.1970   22.1860 C   0  0  0  0  0  0  0  0  0  0  0  0
  1  2  1  0
  2  3  2  0
  2  4  1  0
  4  5  1  0
  5  6  1  0
  6  7  1  0
  7  8  1  0
  8  9  2  0
  8 10  1  0
 10 11  1  0
 11 12  1  0
 12 13  1  0
 13 14  2  0
 14 15  1  0
 15 16  2  0
 16 17  1  0
 17 18  1  0
 18 19  2  0
 18 20  1  0
 20 21  1  0
 20 22  1  0
 13 23  1  0
 17 23  2  0
  7 24  1  0
  4 25  1  0
 24 25  1  0
M  END
