piperidine-amides-33871-covalent
     RDKit          3D

 30 32  0  0  0  0  0  0  0  0999 V2000
    7.1110   -3.2680   19.1570 C   0  0  0  0  0  0  0  0  0  0  0  0
    6.3710   -4.0270   20.1800 C   0  0  0  0  0  0  0  0  0  0  0  0
    5.2530   -4.4830   19.8540 O   0  0  0  0  0  0  0  0  0  0  0  0
    6.9290   -4.2990   21.4520 N   0  0  0  0  0  0  0  0  0  0  0  0
    6.3570   -5.3450   22.2160 C   0  0  0  0  0  0  0  0  0  0  0  0
    5.8080   -4.9130   23.4970 C   0  0  0  0  0  0  0  0  0  0  0  0
    6.5690   -3.8540   24.2030 C   0  0  0  0  0  0  0  0  0  0  0  0
    5.8040   -3.2710   25.3400 C   0  0  0  0  0  0  0  0  0  0  0  0
    4.5570   -3.2190   25.3100 O   0  0  0  0  0  0  0  0  0  0  0  0
    6.4990   -2.7840   26.4480 N   0  0  0  0  0  0  0  0  0  0  0  0
    6.5680   -1.4150   26.8070 C   0  0  0  0  0  0  0  0  0  0  0  0
    6.8770   -0.9870   28.1670 C   0  0  0  0  0  0  0  0  0  0  0  0
    7.4610   -3.6760   27.0310 C   0  0  0  0  0  0  0  0  0  0  0  0
    8.0960   -3.2310   28.1560 C   0  0  0  0  0  0  0  0  0  0  0  0
    8.9930   -4.1000   28.7510 N   0  0  0  0  0  0  0  0  0  0  0  0
   10.1980   -4.7100   28.2710 C   0  0  0  0  0  0  0  0  0  0  0  0
   11.6410   -4.6780   29.0970 C   0  0  0  0  0  0  0  0  0  0  0  0
   11.5080   -5.6900   29.7760 N   0  0  0  0  0  0  0  0  0  0  0  0
   11.7430   -6.7210   32.4510 C   0  0  0  0  0  0  0  0  0  0  0  0
   12.4590   -8.3660   32.5370 C   0  0  0  0  0  0  0  0  0  0  0  0
   12.7750   -9.2140   33.6970 C   0  0  0  0  0  0  0  0  0  0  0  0
   12.5240   -8.7590   35.0390 C   0  0  0  0  0  0  0  0  0  0  0  0
   11.9680   -7.4310   35.1010 C   0  0  0  0  0  0  0  0  0  0  0  0
   11.7820   -7.1070   36.2830 O   0  0  0  0  0  0  0  0  0  0  0  0
   10.6650   -7.6840   36.9340 C   0  0  0  0  0  0  0  0  0  0  0  0
   11.6620   -6.5870   33.9500 C   0  0  0  0  0  0  0  0  0  0  0  0
    9.9270   -5.6120   28.6080 C   0  0  0  0  0  0  0  0  0  0  0  0
    8.5270   -5.2950   28.6610 C   0  0  0  0  0  0  0  0  0  0  0  0
    6.9150   -2.7360   23.2500 C   0  0  0  0  0  0  0  0  0  0  0  0
    7.7130   -3.2840   22.0980 C   0  0  0  0  0  0  0  0  0  0  0  0
  1  2  1  0
  2  3  2  0
  2  4  1  0
  4  5  1  0
  5  6  1  0
  6  7  1  0
  7  8  1  0
  8  9  2  0
  8 10  1  0
 10 11  1  0
 11 12  1  0
 10 13  1  0
 13 14  1  0
 14 15  1  0
 15 16  1  0
 16 17  1  0
 17 18  1  0
 18 19  1  0
 19 20  2  0
 20 21  1  0
 21 22  2  0
 22 23  1  0
 23 24  1  0
 24 25  1  0
 19 26  1  0
 23 26  2  0
 18 27  1  0
 15 28  1  0
 27 28  1  0
  7 29  1  0
  4 30  1  0
 29 30  1  0
M  END
