piperidine-amides-8922-covalent
     RDKit          3D

 22 23  0  0  0  0  0  0  0  0999 V2000
    7.1350   -3.2590   19.2260 C   0  0  0  0  0  0  0  0  0  0  0  0
    6.4080   -4.0320   20.2330 C   0  0  0  0  0  0  0  0  0  0  0  0
    5.3280   -4.5530   19.8990 O   0  0  0  0  0  0  0  0  0  0  0  0
    6.9550   -4.2280   21.5250 N   0  0  0  0  0  0  0  0  0  0  0  0
    6.4900   -5.3650   22.2730 C   0  0  0  0  0  0  0  0  0  0  0  0
    5.9960   -4.9800   23.6530 C   0  0  0  0  0  0  0  0  0  0  0  0
    5.8040   -3.4730   23.7470 C   0  0  0  0  0  0  0  0  0  0  0  0
    5.0930   -3.1260   25.0210 C   0  0  0  0  0  0  0  0  0  0  0  0
    4.1200   -3.8200   25.2850 O   0  0  0  0  0  0  0  0  0  0  0  0
    5.5260   -2.0800   25.8210 N   0  0  0  0  0  0  0  0  0  0  0  0
    5.4430   -2.2440   27.2260 C   0  0  0  0  0  0  0  0  0  0  0  0
    6.2860   -3.2400   27.5920 C   0  0  0  0  0  0  0  0  0  0  0  0
    6.1280   -4.2270   28.5520 C   0  0  0  0  0  0  0  0  0  0  0  0
    7.2090   -5.0560   28.6140 C   0  0  0  0  0  0  0  0  0  0  0  0
    8.0570   -4.4540   27.5790 C   0  0  0  0  0  0  0  0  0  0  0  0
    9.4080   -5.0060   27.2470 C   0  0  0  0  0  0  0  0  0  0  0  0
   10.1550   -4.0880   26.8730 O   0  0  0  0  0  0  0  0  0  0  0  0
    9.6510   -6.2200   27.2490 O   0  0  0  0  0  0  0  0  0  0  0  0
    9.5760   -6.4120   25.9140 C   0  0  0  0  0  0  0  0  0  0  0  0
    7.4450   -3.3830   27.0110 O   0  0  0  0  0  0  0  0  0  0  0  0
    7.0860   -2.7840   23.4970 C   0  0  0  0  0  0  0  0  0  0  0  0
    7.6810   -3.1450   22.1400 C   0  0  0  0  0  0  0  0  0  0  0  0
  1  2  1  0
  2  3  2  0
  2  4  1  0
  4  5  1  0
  5  6  1  0
  6  7  1  0
  7  8  1  0
  8  9  2  0
  8 10  1  0
 10 11  1  0
 11 12  1  0
 12 13  2  0
 13 14  1  0
 14 15  2  0
 15 16  1  0
 16 17  2  0
 16 18  1  0
 18 19  1  0
 12 20  1  0
 15 20  1  0
  7 21  1  0
  4 22  1  0
 21 22  1  0
M  END
