piperidine-amides-8805-covalent
     RDKit          3D

 22 23  0  0  0  0  0  0  0  0999 V2000
    7.0900   -3.2870   19.2940 C   0  0  0  0  0  0  0  0  0  0  0  0
    6.3760   -4.0900   20.2820 C   0  0  0  0  0  0  0  0  0  0  0  0
    5.3230   -4.6500   19.9270 O   0  0  0  0  0  0  0  0  0  0  0  0
    6.9090   -4.2580   21.5840 N   0  0  0  0  0  0  0  0  0  0  0  0
    6.5840   -5.4290   22.3370 C   0  0  0  0  0  0  0  0  0  0  0  0
    5.6850   -5.0450   23.4740 C   0  0  0  0  0  0  0  0  0  0  0  0
    6.2950   -3.8360   24.1620 C   0  0  0  0  0  0  0  0  0  0  0  0
    5.2540   -3.2580   25.0870 C   0  0  0  0  0  0  0  0  0  0  0  0
    4.1550   -3.7950   25.0610 O   0  0  0  0  0  0  0  0  0  0  0  0
    5.5700   -2.1820   25.9050 N   0  0  0  0  0  0  0  0  0  0  0  0
    6.7650   -2.1690   26.6310 C   0  0  0  0  0  0  0  0  0  0  0  0
    7.0870   -0.9670   27.2930 C   0  0  0  0  0  0  0  0  0  0  0  0
    7.3160    0.2120   26.5960 C   0  0  0  0  0  0  0  0  0  0  0  0
    7.6500    1.4230   27.2080 C   0  0  0  0  0  0  0  0  0  0  0  0
    7.9680    1.3230   28.6640 C   0  0  0  0  0  0  0  0  0  0  0  0
    7.9040    0.1300   29.2640 N   0  0  0  0  0  0  0  0  0  0  0  0
    8.7950   -0.2450   30.1830 C   0  0  0  0  0  0  0  0  0  0  0  0
   10.0110    0.6040   30.3130 C   0  0  0  0  0  0  0  0  0  0  0  0
    7.1890   -0.9670   28.6810 C   0  0  0  0  0  0  0  0  0  0  0  0
    6.6980   -1.8250   29.4540 O   0  0  0  0  0  0  0  0  0  0  0  0
    6.7900   -2.7410   23.3090 C   0  0  0  0  0  0  0  0  0  0  0  0
    7.5960   -3.1980   22.2910 C   0  0  0  0  0  0  0  0  0  0  0  0
  1  2  1  0
  2  3  2  0
  2  4  1  0
  4  5  1  0
  5  6  1  0
  6  7  1  0
  7  8  1  0
  8  9  2  0
  8 10  1  0
 10 11  1  0
 11 12  1  0
 12 13  2  0
 13 14  1  0
 14 15  2  0
 15 16  1  0
 16 17  1  0
 17 18  1  0
 12 19  1  0
 16 19  1  0
 19 20  2  0
  7 21  1  0
  4 22  1  0
 21 22  1  0
M  END
