piperidine-amides-2799-covalent
     RDKit          3D

 24 25  0  0  0  0  0  0  0  0999 V2000
    7.0770   -3.2780   19.2890 C   0  0  0  0  0  0  0  0  0  0  0  0
    6.3230   -4.0690   20.2630 C   0  0  0  0  0  0  0  0  0  0  0  0
    5.2970   -4.6480   19.9170 O   0  0  0  0  0  0  0  0  0  0  0  0
    6.7900   -4.2180   21.6180 N   0  0  0  0  0  0  0  0  0  0  0  0
    7.6720   -3.2210   22.1800 C   0  0  0  0  0  0  0  0  0  0  0  0
    7.2900   -2.9630   23.6020 C   0  0  0  0  0  0  0  0  0  0  0  0
    6.0470   -3.7970   23.8380 C   0  0  0  0  0  0  0  0  0  0  0  0
    5.4470   -3.5430   25.1740 C   0  0  0  0  0  0  0  0  0  0  0  0
    4.2340   -3.3110   25.3190 O   0  0  0  0  0  0  0  0  0  0  0  0
    6.2630   -3.5480   26.3190 N   0  0  0  0  0  0  0  0  0  0  0  0
    6.5290   -2.2650   26.8750 C   0  0  0  0  0  0  0  0  0  0  0  0
    6.5480   -2.3340   28.3770 C   0  0  0  0  0  0  0  0  0  0  0  0
    6.6280   -1.1050   29.0070 C   0  0  0  0  0  0  0  0  0  0  0  0
    7.5990   -0.8460   30.0080 C   0  0  0  0  0  0  0  0  0  0  0  0
    7.7160    0.3660   30.6660 C   0  0  0  0  0  0  0  0  0  0  0  0
    6.8210    1.4310   30.3210 C   0  0  0  0  0  0  0  0  0  0  0  0
    5.8620    1.3100   29.3800 C   0  0  0  0  0  0  0  0  0  0  0  0
    4.9360    2.2300   28.9290 C   0  0  0  0  0  0  0  0  0  0  0  0
    3.9530    2.4520   29.8780 O   0  0  0  0  0  0  0  0  0  0  0  0
    4.9710    2.8040   27.8090 O   0  0  0  0  0  0  0  0  0  0  0  0
    6.1550    2.5050   27.1690 C   0  0  0  0  0  0  0  0  0  0  0  0
    5.7980   -0.0310   28.7250 C   0  0  0  0  0  0  0  0  0  0  0  0
    6.2860   -5.2760   23.6130 C   0  0  0  0  0  0  0  0  0  0  0  0
    6.6390   -5.4930   22.2770 C   0  0  0  0  0  0  0  0  0  0  0  0
  1  2  1  0
  2  3  2  0
  2  4  1  0
  4  5  1  0
  5  6  1  0
  6  7  1  0
  7  8  1  0
  8  9  2  0
  8 10  1  0
 10 11  1  0
 11 12  1  0
 12 13  1  0
 13 14  2  0
 14 15  1  0
 15 16  2  0
 16 17  1  0
 17 18  1  0
 18 19  2  0
 18 20  1  0
 20 21  1  0
 13 22  1  0
 17 22  2  0
  7 23  1  0
  4 24  1  0
 23 24  1  0
M  END
