piperidine-amides-29928-covalent
     RDKit          3D

 27 29  0  0  0  0  0  0  0  0999 V2000
    7.0500   -3.3070   19.2770 C   0  0  0  0  0  0  0  0  0  0  0  0
    6.3550   -4.0990   20.2890 C   0  0  0  0  0  0  0  0  0  0  0  0
    5.3570   -4.7400   19.9600 O   0  0  0  0  0  0  0  0  0  0  0  0
    6.8440   -4.1850   21.6450 N   0  0  0  0  0  0  0  0  0  0  0  0
    6.6700   -5.4240   22.3730 C   0  0  0  0  0  0  0  0  0  0  0  0
    6.1170   -5.1650   23.7530 C   0  0  0  0  0  0  0  0  0  0  0  0
    6.0140   -3.6620   23.9310 C   0  0  0  0  0  0  0  0  0  0  0  0
    5.5000   -3.2810   25.2840 C   0  0  0  0  0  0  0  0  0  0  0  0
    4.2830   -3.0980   25.4720 O   0  0  0  0  0  0  0  0  0  0  0  0
    6.3630   -3.1010   26.3920 N   0  0  0  0  0  0  0  0  0  0  0  0
    6.8010   -1.7360   26.5930 C   0  0  0  0  0  0  0  0  0  0  0  0
    6.0980   -3.9510   27.5400 C   0  0  0  0  0  0  0  0  0  0  0  0
    5.7810   -5.2860   27.3170 C   0  0  0  0  0  0  0  0  0  0  0  0
    5.3640   -6.1890   28.3080 C   0  0  0  0  0  0  0  0  0  0  0  0
    5.4020   -5.7470   29.6210 C   0  0  0  0  0  0  0  0  0  0  0  0
    4.2270   -5.7630   30.5160 C   0  0  0  0  0  0  0  0  0  0  0  0
    3.4420   -6.8510   30.3680 N   0  0  0  0  0  0  0  0  0  0  0  0
    2.8970   -7.7410   31.3710 C   0  0  0  0  0  0  0  0  0  0  0  0
    3.6760   -7.9940   32.4660 C   0  0  0  0  0  0  0  0  0  0  0  0
    3.1970   -8.8450   33.4700 C   0  0  0  0  0  0  0  0  0  0  0  0
    1.9760   -9.4320   33.3940 N   0  0  0  0  0  0  0  0  0  0  0  0
    1.1220   -9.1730   32.2160 C   0  0  0  0  0  0  0  0  0  0  0  0
    1.6510   -8.3250   31.2620 C   0  0  0  0  0  0  0  0  0  0  0  0
    3.2750   -7.1740   28.9930 C   0  0  0  0  0  0  0  0  0  0  0  0
    4.1930   -6.7770   27.9030 C   0  0  0  0  0  0  0  0  0  0  0  0
    7.2910   -2.9390   23.6590 C   0  0  0  0  0  0  0  0  0  0  0  0
    7.6690   -3.1390   22.2070 C   0  0  0  0  0  0  0  0  0  0  0  0
  1  2  1  0
  2  3  2  0
  2  4  1  0
  4  5  1  0
  5  6  1  0
  6  7  1  0
  7  8  1  0
  8  9  2  0
  8 10  1  0
 10 11  1  0
 10 12  1  0
 12 13  1  0
 13 14  1  0
 14 15  1  0
 15 16  1  0
 16 17  1  0
 17 18  1  0
 18 19  2  0
 19 20  1  0
 20 21  2  0
 21 22  1  0
 18 23  1  0
 22 23  2  0
 17 24  1  0
 14 25  1  0
 24 25  1  0
  7 26  1  0
  4 27  1  0
 26 27  1  0
M  END
