piperidine-amides-24531-covalent
     RDKit          3D

 24 26  0  0  0  0  0  0  0  0999 V2000
    7.0740   -3.3720   19.3820 C   0  0  0  0  0  0  0  0  0  0  0  0
    6.3820   -4.2230   20.3590 C   0  0  0  0  0  0  0  0  0  0  0  0
    5.3890   -4.8910   20.0000 O   0  0  0  0  0  0  0  0  0  0  0  0
    6.8580   -4.3270   21.6760 N   0  0  0  0  0  0  0  0  0  0  0  0
    6.5960   -5.5570   22.4120 C   0  0  0  0  0  0  0  0  0  0  0  0
    6.3170   -5.1990   23.8910 C   0  0  0  0  0  0  0  0  0  0  0  0
    6.2470   -3.6940   23.9640 C   0  0  0  0  0  0  0  0  0  0  0  0
    5.8830   -3.1470   25.2900 C   0  0  0  0  0  0  0  0  0  0  0  0
    5.4770   -1.9740   25.3190 O   0  0  0  0  0  0  0  0  0  0  0  0
    5.9190   -3.8980   26.4830 N   0  0  0  0  0  0  0  0  0  0  0  0
    4.6190   -4.0710   27.0580 C   0  0  0  0  0  0  0  0  0  0  0  0
    4.5970   -5.3700   27.8120 C   0  0  0  0  0  0  0  0  0  0  0  0
    5.3920   -5.3930   28.8670 C   0  0  0  0  0  0  0  0  0  0  0  0
    6.5620   -4.8070   28.6190 C   0  0  0  0  0  0  0  0  0  0  0  0
    6.3610   -3.6400   27.8510 C   0  0  0  0  0  0  0  0  0  0  0  0
    4.9080   -5.8420   30.1230 C   0  0  0  0  0  0  0  0  0  0  0  0
    4.6940   -4.4800   29.7220 C   0  0  2  0  0  0  0  0  0  0  0  0
    3.5970   -4.9900   30.6380 C   0  0  0  0  0  0  0  0  0  0  0  0
    2.6280   -5.4350   29.9600 O   0  0  0  0  0  0  0  0  0  0  0  0
    3.5820   -4.9740   31.9130 O   0  0  0  0  0  0  0  0  0  0  0  0
    2.7050   -4.0960   32.5910 C   0  0  0  0  0  0  0  0  0  0  0  0
    3.3820   -2.8060   32.7510 C   0  0  0  0  0  0  0  0  0  0  0  0
    7.5520   -3.1370   23.5240 C   0  0  0  0  0  0  0  0  0  0  0  0
    7.7080   -3.2900   22.1890 C   0  0  0  0  0  0  0  0  0  0  0  0
  1  2  1  0
  2  3  2  0
  2  4  1  0
  4  5  1  0
  5  6  1  0
  6  7  1  0
  7  8  1  0
  8  9  2  0
  8 10  1  0
 10 11  1  0
 11 12  1  0
 13 12  1  0
 13 14  1  0
 10 15  1  0
 14 15  1  0
 13 16  1  0
 13 17  1  0
 16 17  1  0
 17 18  1  6
 18 19  2  0
 18 20  1  0
 20 21  1  0
 21 22  1  0
  7 23  1  0
  4 24  1  0
 23 24  1  0
M  END
