piperidine-amides-576-covalent
     RDKit          3D

 26 28  0  0  0  0  0  0  0  0999 V2000
    7.0960   -3.3550   19.2160 C   0  0  0  0  0  0  0  0  0  0  0  0
    6.4010   -4.0630   20.2690 C   0  0  0  0  0  0  0  0  0  0  0  0
    5.3380   -4.6790   19.9450 O   0  0  0  0  0  0  0  0  0  0  0  0
    6.8780   -4.1430   21.6020 N   0  0  0  0  0  0  0  0  0  0  0  0
    6.6860   -5.4510   22.3000 C   0  0  0  0  0  0  0  0  0  0  0  0
    6.0340   -5.0070   23.6740 C   0  0  0  0  0  0  0  0  0  0  0  0
    6.2720   -3.5290   23.7040 C   0  0  0  0  0  0  0  0  0  0  0  0
    5.4940   -2.7470   24.8290 C   0  0  0  0  0  0  0  0  0  0  0  0
    4.8730   -1.8250   24.3450 O   0  0  0  0  0  0  0  0  0  0  0  0
    5.6870   -3.2690   25.9480 N   0  0  0  0  0  0  0  0  0  0  0  0
    5.7020   -3.7170   27.2020 C   0  0  0  0  0  0  0  0  0  0  0  0
    4.8500   -3.8440   28.2390 C   0  0  0  0  0  0  0  0  0  0  0  0
    4.4430   -5.1380   28.6440 C   0  0  0  0  0  0  0  0  0  0  0  0
    3.0510   -5.6670   28.6700 C   0  0  0  0  0  0  0  0  0  0  0  0
    2.0560   -4.7880   28.2490 F   0  0  0  0  0  0  0  0  0  0  0  0
    2.8340   -7.1130   29.1510 C   0  0  0  0  0  0  0  0  0  0  0  0
    4.0000   -7.7930   29.5200 C   0  0  0  0  0  0  0  0  0  0  0  0
    5.3820   -7.5840   29.6010 C   0  0  0  0  0  0  0  0  0  0  0  0
    5.4300   -6.1600   29.1100 C   0  0  0  0  0  0  0  0  0  0  0  0
    6.7540   -5.6610   29.0840 F   0  0  0  0  0  0  0  0  0  0  0  0
    5.5070   -3.5880   29.5360 C   0  0  0  0  0  0  0  0  0  0  0  0
    4.9080   -2.4440   29.9700 C   0  0  0  0  0  0  0  0  0  0  0  0
    3.8950   -2.0740   29.1200 C   0  0  0  0  0  0  0  0  0  0  0  0
    3.6670   -2.9280   28.0740 C   0  0  0  0  0  0  0  0  0  0  0  0
    7.6500   -3.0770   23.4630 C   0  0  0  0  0  0  0  0  0  0  0  0
    7.8490   -3.1890   22.1020 C   0  0  0  0  0  0  0  0  0  0  0  0
  1  2  1  0
  2  3  2  0
  2  4  1  0
  4  5  1  0
  5  6  1  0
  6  7  1  0
  7  8  1  0
  8  9  2  0
  8 10  1  0
 10 11  1  0
 12 11  1  0
 12 13  1  0
 13 14  2  0
 14 15  1  0
 14 16  1  0
 16 17  2  0
 17 18  1  0
 13 19  1  0
 18 19  2  0
 19 20  1  0
 12 21  1  0
 21 22  1  0
 22 23  1  0
 12 24  1  0
 23 24  1  0
  7 25  1  0
  4 26  1  0
 25 26  1  0
M  END
