piperidine-amides-6708-covalent
     RDKit          3D

 24 25  0  0  0  0  0  0  0  0999 V2000
    7.0950   -3.2740   19.1900 C   0  0  0  0  0  0  0  0  0  0  0  0
    6.3650   -4.0390   20.2180 C   0  0  0  0  0  0  0  0  0  0  0  0
    5.3120   -4.6450   19.9190 O   0  0  0  0  0  0  0  0  0  0  0  0
    6.8590   -4.1450   21.5220 N   0  0  0  0  0  0  0  0  0  0  0  0
    7.7070   -3.1040   22.0610 C   0  0  0  0  0  0  0  0  0  0  0  0
    7.0070   -2.5730   23.3040 C   0  0  0  0  0  0  0  0  0  0  0  0
    6.7190   -3.7870   24.1580 C   0  0  0  0  0  0  0  0  0  0  0  0
    6.1060   -3.3580   25.4300 C   0  0  0  0  0  0  0  0  0  0  0  0
    4.8800   -3.0880   25.4450 O   0  0  0  0  0  0  0  0  0  0  0  0
    6.9250   -3.2640   26.5890 N   0  0  0  0  0  0  0  0  0  0  0  0
    7.3970   -4.4610   27.2350 C   0  0  2  0  0  0  0  0  0  0  0  0
    8.4400   -5.0500   26.3150 C   0  0  0  0  0  0  0  0  0  0  0  0
    9.3930   -5.8800   26.8160 C   0  0  0  0  0  0  0  0  0  0  0  0
    6.3300   -5.4030   27.5740 C   0  0  0  0  0  0  0  0  0  0  0  0
    5.7480   -6.1110   26.5360 O   0  0  0  0  0  0  0  0  0  0  0  0
    5.8950   -5.5820   28.9160 N   0  0  0  0  0  0  0  0  0  0  0  0
    5.5860   -6.8220   29.4360 C   0  0  0  0  0  0  0  0  0  0  0  0
    4.9530   -6.6230   30.6410 C   0  0  0  0  0  0  0  0  0  0  0  0
    3.7190   -5.7160   30.8600 C   0  0  0  0  0  0  0  0  0  0  0  0
    3.5860   -5.9790   32.3740 C   0  0  0  0  0  0  0  0  0  0  0  0
    4.4480   -6.8540   33.2200 C   0  0  0  0  0  0  0  0  0  0  0  0
    5.6040   -7.4680   32.0440 S   0  0  0  0  0  0  0  0  0  0  0  0
    5.8010   -4.7480   23.4280 C   0  0  0  0  0  0  0  0  0  0  0  0
    6.5290   -5.2790   22.3510 C   0  0  0  0  0  0  0  0  0  0  0  0
  1  2  1  0
  2  3  2  0
  2  4  1  0
  4  5  1  0
  5  6  1  0
  6  7  1  0
  7  8  1  0
  8  9  2  0
  8 10  1  0
 10 11  1  0
 11 12  1  6
 12 13  1  0
 11 14  1  0
 14 15  2  0
 14 16  1  0
 16 17  1  0
 17 18  1  0
 18 19  2  0
 19 20  1  0
 20 21  2  0
 18 22  1  0
 21 22  1  0
  7 23  1  0
  4 24  1  0
 23 24  1  0
M  END
