piperidine-amides-30678-covalent
     RDKit          3D

 27 29  0  0  0  0  0  0  0  0999 V2000
    7.0450   -3.3540   19.2990 C   0  0  0  0  0  0  0  0  0  0  0  0
    6.3690   -4.1890   20.2930 C   0  0  0  0  0  0  0  0  0  0  0  0
    5.3500   -4.8170   19.9680 O   0  0  0  0  0  0  0  0  0  0  0  0
    6.8840   -4.3270   21.5860 N   0  0  0  0  0  0  0  0  0  0  0  0
    7.6890   -3.2680   22.1750 C   0  0  0  0  0  0  0  0  0  0  0  0
    7.2340   -3.1050   23.5910 C   0  0  0  0  0  0  0  0  0  0  0  0
    5.8760   -3.6460   23.7950 C   0  0  0  0  0  0  0  0  0  0  0  0
    5.3230   -3.3230   25.1370 C   0  0  0  0  0  0  0  0  0  0  0  0
    4.1320   -2.9100   25.2310 O   0  0  0  0  0  0  0  0  0  0  0  0
    6.0330   -3.4370   26.3460 N   0  0  0  0  0  0  0  0  0  0  0  0
    5.5820   -2.6210   27.5200 C   0  0  0  0  0  0  0  0  0  0  0  0
    5.4330   -3.4370   28.7450 C   0  0  1  0  0  0  0  0  0  0  0  0
    4.3760   -4.2420   28.5430 N   0  0  0  0  0  0  0  0  0  0  0  0
    3.4950   -4.5750   29.6020 C   0  0  0  0  0  0  0  0  0  0  0  0
    3.3550   -3.8970   30.6380 O   0  0  0  0  0  0  0  0  0  0  0  0
    2.7730   -5.6600   29.5090 O   0  0  0  0  0  0  0  0  0  0  0  0
    3.2840   -6.9500   29.2470 C   0  0  0  0  0  0  0  0  0  0  0  0
    4.4030   -7.3490   30.1960 C   0  0  0  0  0  0  0  0  0  0  0  0
    3.6620   -7.2070   27.7790 C   0  0  0  0  0  0  0  0  0  0  0  0
    2.4170   -8.0880   29.7640 C   0  0  0  0  0  0  0  0  0  0  0  0
    6.6950   -4.1600   28.9020 C   0  0  0  0  0  0  0  0  0  0  0  0
    7.0450   -5.0950   27.8260 C   0  0  0  0  0  0  0  0  0  0  0  0
    7.8390   -6.1980   27.8630 C   0  0  0  0  0  0  0  0  0  0  0  0
    6.3200   -6.5080   27.9750 C   0  0  0  0  0  0  0  0  0  0  0  0
    6.8090   -4.6430   26.4090 C   0  0  0  0  0  0  0  0  0  0  0  0
    5.7900   -5.0870   23.5070 C   0  0  0  0  0  0  0  0  0  0  0  0
    6.5400   -5.4500   22.4120 C   0  0  0  0  0  0  0  0  0  0  0  0
  1  2  1  0
  2  3  2  0
  2  4  1  0
  4  5  1  0
  5  6  1  0
  6  7  1  0
  7  8  1  0
  8  9  2  0
  8 10  1  0
 10 11  1  0
 11 12  1  0
 12 13  1  6
 13 14  1  0
 14 15  2  0
 14 16  1  0
 17 16  1  0
 17 18  1  0
 17 19  1  0
 17 20  1  0
 12 21  1  0
 22 21  1  0
 22 23  1  0
 22 24  1  0
 23 24  1  0
 10 25  1  0
 22 25  1  0
  7 26  1  0
  4 27  1  0
 26 27  1  0
M  END
