piperidine-amides-3780-covalent
     RDKit          3D

 22 24  0  0  0  0  0  0  0  0999 V2000
    7.1090   -3.2850   19.2220 C   0  0  0  0  0  0  0  0  0  0  0  0
    6.3790   -4.0390   20.2570 C   0  0  0  0  0  0  0  0  0  0  0  0
    5.2990   -4.5620   19.9010 O   0  0  0  0  0  0  0  0  0  0  0  0
    6.8970   -4.2200   21.5680 N   0  0  0  0  0  0  0  0  0  0  0  0
    7.6600   -3.1570   22.1380 C   0  0  0  0  0  0  0  0  0  0  0  0
    7.3330   -2.9240   23.5310 C   0  0  0  0  0  0  0  0  0  0  0  0
    6.1100   -3.6360   23.9210 C   0  0  0  0  0  0  0  0  0  0  0  0
    5.5530   -3.1710   25.2280 C   0  0  0  0  0  0  0  0  0  0  0  0
    4.4660   -2.5660   25.2180 O   0  0  0  0  0  0  0  0  0  0  0  0
    6.1880   -3.3890   26.4580 N   0  0  0  0  0  0  0  0  0  0  0  0
    5.5690   -3.8210   27.6530 C   0  0  1  0  0  0  0  0  0  0  0  0
    6.1170   -3.6080   28.9220 C   0  0  0  0  0  0  0  0  0  0  0  0
    4.8970   -2.7580   29.3380 C   0  0  2  0  0  0  0  0  0  0  0  0
    4.0560   -3.3520   30.3260 C   0  0  0  0  0  0  0  0  0  0  0  0
    2.7430   -3.3500   29.4690 C   0  0  2  0  0  0  0  0  0  0  0  0
    2.3060   -4.6650   30.0380 C   0  0  0  0  0  0  0  0  0  0  0  0
    2.8830   -5.8350   29.7320 N   0  0  0  0  0  0  0  0  0  0  0  0
    1.2350   -4.5350   30.9240 O   0  0  0  0  0  0  0  0  0  0  0  0
    3.0600   -3.4830   27.9780 C   0  0  0  0  0  0  0  0  0  0  0  0
    4.4030   -2.9330   27.8930 C   0  0  2  0  0  0  0  0  0  0  0  0
    6.3180   -5.1240   23.7860 C   0  0  0  0  0  0  0  0  0  0  0  0
    6.5420   -5.4230   22.2880 C   0  0  0  0  0  0  0  0  0  0  0  0
  1  2  1  0
  2  3  2  0
  2  4  1  0
  4  5  1  0
  5  6  1  0
  6  7  1  0
  7  8  1  0
  8  9  2  0
  8 10  1  0
 11 10  1  6
 11 12  1  0
 13 12  1  6
 13 14  1  0
 14 15  1  0
 15 16  1  1
 16 17  1  0
 16 18  2  0
 15 19  1  0
 11 20  1  0
 13 20  1  0
 20 19  1  1
  7 21  1  0
  4 22  1  0
 21 22  1  0
M  END
