piperidine-amides-12451-covalent
     RDKit          3D

 24 26  0  0  0  0  0  0  0  0999 V2000
    7.0460   -3.3290   19.3210 C   0  0  0  0  0  0  0  0  0  0  0  0
    6.3490   -4.1350   20.3200 C   0  0  0  0  0  0  0  0  0  0  0  0
    5.3660   -4.7920   19.9740 O   0  0  0  0  0  0  0  0  0  0  0  0
    6.8170   -4.2150   21.6860 N   0  0  0  0  0  0  0  0  0  0  0  0
    6.6470   -5.4560   22.4060 C   0  0  0  0  0  0  0  0  0  0  0  0
    6.0980   -5.1980   23.7870 C   0  0  0  0  0  0  0  0  0  0  0  0
    6.0260   -3.6960   23.9570 C   0  0  0  0  0  0  0  0  0  0  0  0
    5.4150   -3.3250   25.2800 C   0  0  0  0  0  0  0  0  0  0  0  0
    4.2970   -2.7840   25.3250 O   0  0  0  0  0  0  0  0  0  0  0  0
    6.0690   -3.5600   26.5190 N   0  0  0  0  0  0  0  0  0  0  0  0
    6.0210   -4.8760   27.1410 C   0  0  0  0  0  0  0  0  0  0  0  0
    4.6720   -5.2220   27.7110 C   0  0  0  0  0  0  0  0  0  0  0  0
    3.8190   -4.6020   28.5770 N   0  0  0  0  0  0  0  0  0  0  0  0
    2.6740   -5.3050   28.8430 C   0  0  0  0  0  0  0  0  0  0  0  0
    1.6820   -4.8400   29.7110 C   0  0  0  0  0  0  0  0  0  0  0  0
    1.8570   -3.7850   30.6050 C   0  0  0  0  0  0  0  0  0  0  0  0
    0.7960   -3.3560   31.4710 C   0  0  0  0  0  0  0  0  0  0  0  0
   -0.3890   -3.9700   31.4320 C   0  0  0  0  0  0  0  0  0  0  0  0
   -0.5330   -4.9990   30.5490 C   0  0  0  0  0  0  0  0  0  0  0  0
    0.4330   -5.4580   29.6960 N   0  0  0  0  0  0  0  0  0  0  0  0
    2.5540   -6.5030   28.2100 C   0  0  0  0  0  0  0  0  0  0  0  0
    3.9880   -6.7770   27.2010 S   0  0  0  0  0  0  0  0  0  0  0  0
    7.2530   -3.0010   23.6270 C   0  0  0  0  0  0  0  0  0  0  0  0
    7.6250   -3.1710   22.2960 C   0  0  0  0  0  0  0  0  0  0  0  0
  1  2  1  0
  2  3  2  0
  2  4  1  0
  4  5  1  0
  5  6  1  0
  6  7  1  0
  7  8  1  0
  8  9  2  0
  8 10  1  0
 10 11  1  0
 11 12  1  0
 12 13  2  0
 13 14  1  0
 14 15  1  0
 15 16  2  0
 16 17  1  0
 17 18  2  0
 18 19  1  0
 15 20  1  0
 19 20  2  0
 14 21  2  0
 12 22  1  0
 21 22  1  0
  7 23  1  0
  4 24  1  0
 23 24  1  0
M  END
