piperidine-amides-6399-covalent
     RDKit          3D

 25 27  0  0  0  0  0  0  0  0999 V2000
    7.1050   -3.3110   19.3020 C   0  0  0  0  0  0  0  0  0  0  0  0
    6.4160   -4.1590   20.2840 C   0  0  0  0  0  0  0  0  0  0  0  0
    5.3800   -4.7850   19.9680 O   0  0  0  0  0  0  0  0  0  0  0  0
    6.9450   -4.3160   21.5700 N   0  0  0  0  0  0  0  0  0  0  0  0
    6.5410   -5.4450   22.3710 C   0  0  0  0  0  0  0  0  0  0  0  0
    5.6530   -4.8790   23.4830 C   0  0  0  0  0  0  0  0  0  0  0  0
    6.5160   -3.8920   24.2360 C   0  0  0  0  0  0  0  0  0  0  0  0
    5.7950   -3.3110   25.3830 C   0  0  0  0  0  0  0  0  0  0  0  0
    4.5570   -3.1580   25.2920 O   0  0  0  0  0  0  0  0  0  0  0  0
    6.5100   -2.9480   26.5430 N   0  0  0  0  0  0  0  0  0  0  0  0
    6.3850   -1.6370   27.1180 C   0  0  0  0  0  0  0  0  0  0  0  0
    7.0470   -1.5560   28.4660 C   0  0  0  0  0  0  0  0  0  0  0  0
    7.0300   -0.3940   29.1730 C   0  0  0  0  0  0  0  0  0  0  0  0
    6.3920    0.7030   28.6290 C   0  0  0  0  0  0  0  0  0  0  0  0
    5.7590    0.6800   27.3730 C   0  0  0  0  0  0  0  0  0  0  0  0
    5.1230    1.7770   26.8380 C   0  0  0  0  0  0  0  0  0  0  0  0
    5.0660    3.0580   27.4340 N   0  0  0  0  0  0  0  0  0  0  0  0
    4.4170    4.1630   26.8950 C   0  0  0  0  0  0  0  0  0  0  0  0
    3.7170    3.9980   25.5760 C   0  0  0  0  0  0  0  0  0  0  0  0
    3.8670    2.6480   25.1060 C   0  0  0  0  0  0  0  0  0  0  0  0
    3.0750    3.0510   23.9370 C   0  0  0  0  0  0  0  0  0  0  0  0
    4.4820    1.6730   25.6580 N   0  0  0  0  0  0  0  0  0  0  0  0
    5.7810   -0.4980   26.6590 C   0  0  0  0  0  0  0  0  0  0  0  0
    6.8660   -2.7390   23.3170 C   0  0  0  0  0  0  0  0  0  0  0  0
    7.7110   -3.2540   22.1900 C   0  0  0  0  0  0  0  0  0  0  0  0
  1  2  1  0
  2  3  2  0
  2  4  1  0
  4  5  1  0
  5  6  1  0
  6  7  1  0
  7  8  1  0
  8  9  2  0
  8 10  1  0
 10 11  1  0
 11 12  2  0
 12 13  1  0
 13 14  2  0
 14 15  1  0
 15 16  1  0
 16 17  2  0
 17 18  1  0
 18 19  2  0
 19 20  1  0
 20 21  1  0
 16 22  1  0
 20 22  2  0
 11 23  1  0
 15 23  2  0
  7 24  1  0
  4 25  1  0
 24 25  1  0
M  END
