piperidine-amides-12452-covalent
     RDKit          3D

 23 26  0  0  0  0  0  0  0  0999 V2000
    7.0280   -3.3550   19.3110 C   0  0  0  0  0  0  0  0  0  0  0  0
    6.3500   -4.1720   20.3140 C   0  0  0  0  0  0  0  0  0  0  0  0
    5.3730   -4.8400   19.9830 O   0  0  0  0  0  0  0  0  0  0  0  0
    6.8430   -4.2370   21.6630 N   0  0  0  0  0  0  0  0  0  0  0  0
    7.6920   -3.1880   22.1820 C   0  0  0  0  0  0  0  0  0  0  0  0
    7.5010   -3.0180   23.6640 C   0  0  0  0  0  0  0  0  0  0  0  0
    6.1170   -3.5360   24.0110 C   0  0  0  0  0  0  0  0  0  0  0  0
    5.7120   -3.2080   25.4130 C   0  0  0  0  0  0  0  0  0  0  0  0
    5.3450   -4.0740   26.2190 O   0  0  0  0  0  0  0  0  0  0  0  0
    5.7040   -1.8490   25.8320 N   0  0  0  0  0  0  0  0  0  0  0  0
    6.5760   -1.3600   26.8760 C   0  0  1  0  0  0  0  0  0  0  0  0
    6.1270    0.0340   27.2390 C   0  0  0  0  0  0  0  0  0  0  0  0
    5.7140    0.9740   26.2490 C   0  0  0  0  0  0  0  0  0  0  0  0
    5.4010    2.1190   27.0860 C   0  0  0  0  0  0  0  0  0  0  0  0
    5.4730    2.2810   28.4500 C   0  0  0  0  0  0  0  0  0  0  0  0
    5.9070    1.2230   29.2460 C   0  0  0  0  0  0  0  0  0  0  0  0
    6.2230    0.1180   28.6010 C   0  0  0  0  0  0  0  0  0  0  0  0
    6.6720   -1.0710   29.1180 C   0  0  0  0  0  0  0  0  0  0  0  0
    6.8310   -1.9820   28.0600 C   0  0  0  0  0  0  0  0  0  0  0  0
    7.6020   -3.0440   28.1200 C   0  0  0  0  0  0  0  0  0  0  0  0
    8.3790   -1.9480   28.5200 C   0  0  0  0  0  0  0  0  0  0  0  0
    6.0440   -5.0250   23.7990 C   0  0  0  0  0  0  0  0  0  0  0  0
    6.5290   -5.3870   22.4320 C   0  0  0  0  0  0  0  0  0  0  0  0
  1  2  1  0
  2  3  2  0
  2  4  1  0
  4  5  1  0
  5  6  1  0
  6  7  1  0
  7  8  1  0
  8  9  2  0
  8 10  1  0
 11 10  1  1
 11 12  1  0
 12 13  2  0
 13 14  1  0
 14 15  2  0
 15 16  1  0
 12 17  1  0
 16 17  2  0
 17 18  1  0
 11 19  1  0
 19 18  1  0
 19 20  1  0
 19 21  1  0
 20 21  1  0
  7 22  1  0
  4 23  1  0
 22 23  1  0
M  END
