piperidine-amides-24092-covalent
     RDKit          3D

 24 26  0  0  0  0  0  0  0  0999 V2000
    7.0780   -3.3070   19.2420 C   0  0  0  0  0  0  0  0  0  0  0  0
    6.3890   -4.0840   20.2840 C   0  0  0  0  0  0  0  0  0  0  0  0
    5.3370   -4.6750   19.9380 O   0  0  0  0  0  0  0  0  0  0  0  0
    6.9220   -4.2020   21.5960 N   0  0  0  0  0  0  0  0  0  0  0  0
    6.5470   -5.3240   22.3840 C   0  0  0  0  0  0  0  0  0  0  0  0
    5.9370   -4.9160   23.6370 C   0  0  0  0  0  0  0  0  0  0  0  0
    6.0900   -3.4710   23.8740 C   0  0  0  0  0  0  0  0  0  0  0  0
    5.5780   -3.0650   25.2290 C   0  0  0  0  0  0  0  0  0  0  0  0
    4.7560   -3.8040   25.7970 O   0  0  0  0  0  0  0  0  0  0  0  0
    5.9690   -1.8730   25.8820 N   0  0  0  0  0  0  0  0  0  0  0  0
    6.6550   -1.7820   27.0570 C   0  0  0  0  0  0  0  0  0  0  0  0
    5.6550   -0.9430   27.6040 C   0  0  0  0  0  0  0  0  0  0  0  0
    6.0250    0.1880   28.0560 O   0  0  0  0  0  0  0  0  0  0  0  0
    7.1090    0.0930   28.9000 C   0  0  0  0  0  0  0  0  0  0  0  0
    6.6370    0.2020   30.1950 C   0  0  0  0  0  0  0  0  0  0  0  0
    8.0230    0.1730   30.8760 C   0  0  0  0  0  0  0  0  0  0  0  0
    7.9700    0.2770   32.4000 C   0  0  0  0  0  0  0  0  0  0  0  0
    6.5330    0.3880   32.9500 C   0  0  0  0  0  0  0  0  0  0  0  0
    5.2340    0.4070   32.2160 C   0  0  0  0  0  0  0  0  0  0  0  0
    5.4000    0.3030   30.7410 C   0  0  0  0  0  0  0  0  0  0  0  0
    4.2370    0.3180   30.0250 F   0  0  0  0  0  0  0  0  0  0  0  0
    4.8790   -0.9390   26.2500 C   0  0  0  0  0  0  0  0  0  0  0  0
    7.5000   -3.0710   23.5870 C   0  0  0  0  0  0  0  0  0  0  0  0
    7.6980   -3.1170   22.1960 C   0  0  0  0  0  0  0  0  0  0  0  0
  1  2  1  0
  2  3  2  0
  2  4  1  0
  4  5  1  0
  5  6  1  0
  6  7  1  0
  7  8  1  0
  8  9  2  0
  8 10  1  0
 10 11  1  0
 11 12  1  0
 12 13  1  0
 13 14  1  0
 14 15  1  0
 15 16  2  0
 16 17  1  0
 17 18  2  0
 18 19  1  0
 15 20  1  0
 19 20  2  0
 20 21  1  0
 10 22  1  0
 12 22  1  0
  7 23  1  0
  4 24  1  0
 23 24  1  0
M  END
