piperidine-amides-35500-covalent
     RDKit          3D

 28 30  0  0  0  0  0  0  0  0999 V2000
    7.0160   -3.3380   19.3550 C   0  0  0  0  0  0  0  0  0  0  0  0
    6.3480   -4.1880   20.3780 C   0  0  0  0  0  0  0  0  0  0  0  0
    5.3910   -4.8570   19.9850 O   0  0  0  0  0  0  0  0  0  0  0  0
    6.8200   -4.2480   21.7020 N   0  0  0  0  0  0  0  0  0  0  0  0
    6.7010   -5.4530   22.4870 C   0  0  0  0  0  0  0  0  0  0  0  0
    6.1180   -5.1240   23.8360 C   0  0  0  0  0  0  0  0  0  0  0  0
    5.9800   -3.6090   23.9970 C   0  0  0  0  0  0  0  0  0  0  0  0
    5.3510   -3.3210   25.3180 C   0  0  0  0  0  0  0  0  0  0  0  0
    4.1360   -3.1030   25.3440 O   0  0  0  0  0  0  0  0  0  0  0  0
    6.0610   -3.2840   26.5410 N   0  0  0  0  0  0  0  0  0  0  0  0
    6.4180   -4.5460   27.1790 C   0  0  0  0  0  0  0  0  0  0  0  0
    5.4450   -5.1070   28.1850 C   0  0  0  0  0  0  0  0  0  0  0  0
    4.0440   -5.1560   28.3200 C   0  0  0  0  0  0  0  0  0  0  0  0
    3.3100   -5.7410   29.3390 C   0  0  0  0  0  0  0  0  0  0  0  0
    3.9020   -6.3680   30.3890 C   0  0  0  0  0  0  0  0  0  0  0  0
    5.3710   -6.4660   30.5090 C   0  0  0  0  0  0  0  0  0  0  0  0
    6.0470   -7.0690   31.5580 O   0  0  0  0  0  0  0  0  0  0  0  0
    5.3430   -7.9210   32.4110 C   0  0  0  0  0  0  0  0  0  0  0  0
    6.1070   -5.8300   29.3880 C   0  0  0  0  0  0  0  0  0  0  0  0
    6.2260   -1.9620   27.1720 C   0  0  0  0  0  0  0  0  0  0  0  0
    6.9100   -1.9940   28.5080 C   0  0  0  0  0  0  0  0  0  0  0  0
    7.1480   -0.7340   29.3050 C   0  0  0  0  0  0  0  0  0  0  0  0
    6.6680    0.5140   28.6870 C   0  0  0  0  0  0  0  0  0  0  0  0
    6.0010    0.4650   27.3480 C   0  0  0  0  0  0  0  0  0  0  0  0
    5.8100   -0.7250   26.6590 C   0  0  0  0  0  0  0  0  0  0  0  0
    4.8490   -0.5930   24.7760 I   0  0  0  0  0  0  0  0  0  0  0  0
    7.2800   -2.9230   23.7020 C   0  0  0  0  0  0  0  0  0  0  0  0
    7.6960   -3.1910   22.2470 C   0  0  0  0  0  0  0  0  0  0  0  0
  1  2  1  0
  2  3  2  0
  2  4  1  0
  4  5  1  0
  5  6  1  0
  6  7  1  0
  7  8  1  0
  8  9  2  0
  8 10  1  0
 10 11  1  0
 11 12  1  0
 12 13  2  0
 13 14  1  0
 14 15  2  0
 15 16  1  0
 16 17  1  0
 17 18  1  0
 12 19  1  0
 16 19  2  0
 10 20  1  0
 20 21  2  0
 21 22  1  0
 22 23  2  0
 23 24  1  0
 20 25  1  0
 24 25  2  0
 25 26  1  0
  7 27  1  0
  4 28  1  0
 27 28  1  0
M  END
