piperidine-amides-12021-covalent
     RDKit          3D

 25 26  0  0  0  0  0  0  0  0999 V2000
    7.0520   -3.3110   19.3000 C   0  0  0  0  0  0  0  0  0  0  0  0
    6.3330   -4.1040   20.2920 C   0  0  0  0  0  0  0  0  0  0  0  0
    5.3240   -4.7210   19.9470 O   0  0  0  0  0  0  0  0  0  0  0  0
    6.8010   -4.2280   21.6520 N   0  0  0  0  0  0  0  0  0  0  0  0
    6.5580   -5.4530   22.3650 C   0  0  0  0  0  0  0  0  0  0  0  0
    6.2140   -5.1900   23.8100 C   0  0  0  0  0  0  0  0  0  0  0  0
    6.0250   -3.6930   24.0170 C   0  0  0  0  0  0  0  0  0  0  0  0
    5.5550   -3.3620   25.4040 C   0  0  0  0  0  0  0  0  0  0  0  0
    4.3580   -3.1140   25.6380 O   0  0  0  0  0  0  0  0  0  0  0  0
    6.4780   -3.2980   26.4800 N   0  0  0  0  0  0  0  0  0  0  0  0
    6.1600   -3.8510   27.8010 C   0  0  0  0  0  0  0  0  0  0  0  0
    5.2990   -5.0960   27.6830 C   0  0  0  0  0  0  0  0  0  0  0  0
    4.0610   -5.0940   27.0820 C   0  0  0  0  0  0  0  0  0  0  0  0
    6.0640   -6.2220   26.9970 C   0  0  0  0  0  0  0  0  0  0  0  0
    5.0140   -5.5820   29.1660 C   0  0  0  0  0  0  0  0  0  0  0  0
    5.8940   -6.6540   29.4320 C   0  0  0  0  0  0  0  0  0  0  0  0
    5.7880   -7.2030   30.6480 C   0  0  0  0  0  0  0  0  0  0  0  0
    4.8640   -6.7280   31.5690 C   0  0  0  0  0  0  0  0  0  0  0  0
    4.7330   -7.2910   32.8580 N   0  0  0  0  0  0  0  0  0  0  0  0
    5.3890   -8.4390   33.1330 C   0  0  0  0  0  0  0  0  0  0  0  0
    4.9520   -6.3580   33.8110 C   0  0  0  0  0  0  0  0  0  0  0  0
    3.9900   -5.6710   31.3250 N   0  0  0  0  0  0  0  0  0  0  0  0
    4.1010   -5.1040   30.0650 C   0  0  0  0  0  0  0  0  0  0  0  0
    7.2950   -2.9700   23.6730 C   0  0  0  0  0  0  0  0  0  0  0  0
    7.5780   -3.1690   22.2180 C   0  0  0  0  0  0  0  0  0  0  0  0
  1  2  1  0
  2  3  2  0
  2  4  1  0
  4  5  1  0
  5  6  1  0
  6  7  1  0
  7  8  1  0
  8  9  2  0
  8 10  1  0
 10 11  1  0
 12 11  1  0
 12 13  1  0
 12 14  1  0
 12 15  1  0
 15 16  2  0
 16 17  1  0
 17 18  2  0
 18 19  1  0
 19 20  1  0
 19 21  1  0
 18 22  1  0
 15 23  1  0
 22 23  2  0
  7 24  1  0
  4 25  1  0
 24 25  1  0
M  END
