piperidine-amides-24402-covalent
     RDKit          3D

 24 26  0  0  0  0  0  0  0  0999 V2000
    7.0370   -3.3670   19.3860 C   0  0  0  0  0  0  0  0  0  0  0  0
    6.3860   -4.2580   20.3570 C   0  0  0  0  0  0  0  0  0  0  0  0
    5.3840   -4.9150   20.0010 O   0  0  0  0  0  0  0  0  0  0  0  0
    6.9050   -4.4290   21.6560 N   0  0  0  0  0  0  0  0  0  0  0  0
    6.5930   -5.6280   22.4070 C   0  0  0  0  0  0  0  0  0  0  0  0
    6.4580   -5.2190   23.8880 C   0  0  0  0  0  0  0  0  0  0  0  0
    5.7670   -3.8790   23.8890 C   0  0  0  0  0  0  0  0  0  0  0  0
    5.2540   -3.4240   25.2080 C   0  0  0  0  0  0  0  0  0  0  0  0
    4.5980   -2.3710   25.2110 O   0  0  0  0  0  0  0  0  0  0  0  0
    5.4790   -4.1260   26.4220 N   0  0  0  0  0  0  0  0  0  0  0  0
    6.8260   -4.1830   26.8270 C   0  0  0  0  0  0  0  0  0  0  0  0
    6.8880   -5.0390   28.0450 C   0  0  0  0  0  0  0  0  0  0  0  0
    5.7110   -4.8700   28.6100 C   0  0  0  0  0  0  0  0  0  0  0  0
    4.9860   -3.9960   27.8220 C   0  0  1  0  0  0  0  0  0  0  0  0
    5.0420   -2.6170   28.0450 C   0  0  0  0  0  0  0  0  0  0  0  0
    4.1170   -2.3990   29.0050 N   0  0  0  0  0  0  0  0  0  0  0  0
    4.4260   -1.7500   30.2450 C   0  0  0  0  0  0  0  0  0  0  0  0
    3.7190   -2.2360   31.5060 C   0  0  0  0  0  0  0  0  0  0  0  0
    2.8410   -1.7090   30.3940 C   0  0  0  0  0  0  0  0  0  0  0  0
    1.3660   -1.9190   30.5570 C   0  0  0  0  0  0  0  0  0  0  0  0
    1.9590   -2.9370   29.6710 C   0  0  0  0  0  0  0  0  0  0  0  0
    2.7370   -2.3980   28.6330 C   0  0  0  0  0  0  0  0  0  0  0  0
    6.7660   -2.8270   23.4180 C   0  0  0  0  0  0  0  0  0  0  0  0
    7.6370   -3.3730   22.3230 C   0  0  0  0  0  0  0  0  0  0  0  0
  1  2  1  0
  2  3  2  0
  2  4  1  0
  4  5  1  0
  5  6  1  0
  6  7  1  0
  7  8  1  0
  8  9  2  0
  8 10  1  0
 10 11  1  0
 11 12  1  0
 12 13  1  0
 10 14  1  0
 13 14  1  0
 14 15  1  1
 15 16  1  0
 16 17  1  0
 17 18  1  0
 18 19  1  0
 19 20  1  0
 20 21  1  0
 16 22  1  0
 21 22  1  0
  7 23  1  0
  4 24  1  0
 23 24  1  0
M  END
