piperidine-amides-31200-covalent
     RDKit          3D

 27 28  0  0  0  0  0  0  0  0999 V2000
    7.0460   -3.3750   19.3580 C   0  0  0  0  0  0  0  0  0  0  0  0
    6.4040   -4.2270   20.3620 C   0  0  0  0  0  0  0  0  0  0  0  0
    5.4340   -4.9290   20.0060 O   0  0  0  0  0  0  0  0  0  0  0  0
    6.8930   -4.2840   21.6890 N   0  0  0  0  0  0  0  0  0  0  0  0
    7.7520   -3.2290   22.1990 C   0  0  0  0  0  0  0  0  0  0  0  0
    7.6030   -3.2070   23.6970 C   0  0  0  0  0  0  0  0  0  0  0  0
    6.2450   -3.6890   24.1160 C   0  0  0  0  0  0  0  0  0  0  0  0
    5.7710   -3.1490   25.4290 C   0  0  0  0  0  0  0  0  0  0  0  0
    5.3970   -1.9510   25.4740 O   0  0  0  0  0  0  0  0  0  0  0  0
    5.6130   -3.8380   26.6650 N   0  0  0  0  0  0  0  0  0  0  0  0
    6.3680   -3.4320   27.8360 C   0  0  0  0  0  0  0  0  0  0  0  0
    6.6690   -4.6950   28.5300 C   0  0  0  0  0  0  0  0  0  0  0  0
    5.5550   -5.0060   29.1860 N   0  0  0  0  0  0  0  0  0  0  0  0
    5.4700   -6.0170   30.1660 C   0  0  0  0  0  0  0  0  0  0  0  0
    6.1480   -7.0550   30.1530 O   0  0  0  0  0  0  0  0  0  0  0  0
    4.6310   -5.8590   31.1510 O   0  0  0  0  0  0  0  0  0  0  0  0
    4.3130   -6.8180   32.1310 C   0  0  0  0  0  0  0  0  0  0  0  0
    5.4820   -7.7180   32.4820 C   0  0  0  0  0  0  0  0  0  0  0  0
    3.6720   -6.1990   33.3780 C   0  0  0  0  0  0  0  0  0  0  0  0
    3.4850   -7.9960   31.6510 C   0  0  0  0  0  0  0  0  0  0  0  0
    4.4770   -5.2390   28.2460 C   0  0  0  0  0  0  0  0  0  0  0  0
    4.3480   -4.1500   27.1780 C   0  0  2  0  0  0  0  0  0  0  0  0
    3.3760   -4.6070   26.0850 C   0  0  0  0  0  0  0  0  0  0  0  0
    3.6780   -2.8470   27.6600 C   0  0  0  0  0  0  0  0  0  0  0  0
    3.6900   -3.3080   28.8020 O   0  0  0  0  0  0  0  0  0  0  0  0
    6.1830   -5.1580   23.8700 C   0  0  0  0  0  0  0  0  0  0  0  0
    6.5620   -5.4540   22.4620 C   0  0  0  0  0  0  0  0  0  0  0  0
  1  2  1  0
  2  3  2  0
  2  4  1  0
  4  5  1  0
  5  6  1  0
  6  7  1  0
  7  8  1  0
  8  9  2  0
  8 10  1  0
 10 11  1  0
 11 12  1  0
 12 13  1  0
 13 14  1  0
 14 15  2  0
 14 16  1  0
 17 16  1  0
 17 18  1  0
 17 19  1  0
 17 20  1  0
 13 21  1  0
 10 22  1  0
 21 22  1  0
 22 23  1  6
 22 24  1  0
 24 25  1  0
  7 26  1  0
  4 27  1  0
 26 27  1  0
M  END
