piperidine-amides-32947-covalent
     RDKit          3D

 25 27  0  0  0  0  0  0  0  0999 V2000
    7.0550   -3.3300   19.3290 C   0  0  0  0  0  0  0  0  0  0  0  0
    6.3680   -4.1860   20.3350 C   0  0  0  0  0  0  0  0  0  0  0  0
    5.3700   -4.8360   19.9790 O   0  0  0  0  0  0  0  0  0  0  0  0
    6.8790   -4.2790   21.6500 N   0  0  0  0  0  0  0  0  0  0  0  0
    6.6490   -5.4680   22.4440 C   0  0  0  0  0  0  0  0  0  0  0  0
    6.2450   -5.0660   23.8800 C   0  0  0  0  0  0  0  0  0  0  0  0
    6.2300   -3.5730   23.9930 C   0  0  0  0  0  0  0  0  0  0  0  0
    5.5460   -3.0510   25.2060 C   0  0  0  0  0  0  0  0  0  0  0  0
    4.4260   -2.5770   25.0000 O   0  0  0  0  0  0  0  0  0  0  0  0
    6.0960   -3.0930   26.4950 N   0  0  0  0  0  0  0  0  0  0  0  0
    6.2960   -1.9200   27.3020 C   0  0  0  0  0  0  0  0  0  0  0  0
    6.9490   -1.9090   28.4600 C   0  0  0  0  0  0  0  0  0  0  0  0
    7.0620   -0.7330   29.1200 C   0  0  0  0  0  0  0  0  0  0  0  0
    6.5110    0.4090   28.5970 C   0  0  0  0  0  0  0  0  0  0  0  0
    5.7270    0.6460   27.3080 C   0  0  0  0  0  0  0  0  0  0  0  0
    5.7900   -0.7410   26.8730 N   0  0  0  0  0  0  0  0  0  0  0  0
    5.7030   -4.2090   27.3680 C   0  0  0  0  0  0  0  0  0  0  0  0
    4.3420   -4.7820   27.1450 C   0  0  0  0  0  0  0  0  0  0  0  0
    3.9070   -5.8320   27.9060 C   0  0  0  0  0  0  0  0  0  0  0  0
    2.1550   -6.5220   27.5780 Br  0  0  0  0  0  0  0  0  0  0  0  0
    4.7400   -6.4650   28.9820 C   0  0  0  0  0  0  0  0  0  0  0  0
    6.1210   -5.7720   29.1060 C   0  0  0  0  0  0  0  0  0  0  0  0
    6.4560   -4.7390   28.3090 N   0  0  0  0  0  0  0  0  0  0  0  0
    7.5820   -3.1130   23.7030 C   0  0  0  0  0  0  0  0  0  0  0  0
    7.7240   -3.2310   22.1820 C   0  0  0  0  0  0  0  0  0  0  0  0
  1  2  1  0
  2  3  2  0
  2  4  1  0
  4  5  1  0
  5  6  1  0
  6  7  1  0
  7  8  1  0
  8  9  2  0
  8 10  1  0
 10 11  1  0
 11 12  2  0
 12 13  1  0
 13 14  2  0
 14 15  1  0
 11 16  1  0
 15 16  2  0
 10 17  1  0
 17 18  2  0
 18 19  1  0
 19 20  1  0
 19 21  2  0
 21 22  1  0
 17 23  1  0
 22 23  2  0
  7 24  1  0
  4 25  1  0
 24 25  1  0
M  END
