piperidine-amides-566-covalent
     RDKit          3D

 26 28  0  0  0  0  0  0  0  0999 V2000
    7.2020   -3.3160   19.3460 C   0  0  0  0  0  0  0  0  0  0  0  0
    6.4230   -4.0700   20.2970 C   0  0  0  0  0  0  0  0  0  0  0  0
    5.3390   -4.6100   19.9130 O   0  0  0  0  0  0  0  0  0  0  0  0
    6.8750   -4.2520   21.6150 N   0  0  0  0  0  0  0  0  0  0  0  0
    6.4860   -5.4690   22.3500 C   0  0  0  0  0  0  0  0  0  0  0  0
    5.5710   -4.8010   23.4450 C   0  0  0  0  0  0  0  0  0  0  0  0
    6.4410   -3.7610   24.1230 C   0  0  0  0  0  0  0  0  0  0  0  0
    5.6810   -3.0550   25.3200 C   0  0  0  0  0  0  0  0  0  0  0  0
    5.0840   -2.0760   24.9040 O   0  0  0  0  0  0  0  0  0  0  0  0
    5.8490   -3.6660   26.4210 N   0  0  0  0  0  0  0  0  0  0  0  0
    5.8260   -4.2210   27.6630 C   0  0  0  0  0  0  0  0  0  0  0  0
    4.9070   -4.4680   28.6470 C   0  0  0  0  0  0  0  0  0  0  0  0
    3.9240   -3.4750   28.8720 C   0  0  0  0  0  0  0  0  0  0  0  0
    3.0610   -3.9200   29.9190 C   0  0  0  0  0  0  0  0  0  0  0  0
    3.5720   -5.1560   30.2660 N   0  0  0  0  0  0  0  0  0  0  0  0
    3.1380   -6.1340   31.2720 C   0  0  0  0  0  0  0  0  0  0  0  0
    2.7790   -5.5050   32.4800 C   0  0  0  0  0  0  0  0  0  0  0  0
    2.9510   -4.1390   32.3220 F   0  0  0  0  0  0  0  0  0  0  0  0
    2.3030   -6.0110   33.7390 C   0  0  0  0  0  0  0  0  0  0  0  0
    2.2430   -7.5590   33.5130 C   0  0  0  0  0  0  0  0  0  0  0  0
    2.6400   -8.2440   32.1730 C   0  0  0  0  0  0  0  0  0  0  0  0
    3.0570   -7.5040   31.1460 C   0  0  0  0  0  0  0  0  0  0  0  0
    3.4140   -8.0850   29.9420 F   0  0  0  0  0  0  0  0  0  0  0  0
    4.6660   -5.5130   29.5350 N   0  0  0  0  0  0  0  0  0  0  0  0
    7.0550   -2.7000   23.2240 C   0  0  0  0  0  0  0  0  0  0  0  0
    7.7460   -3.2870   22.2320 C   0  0  0  0  0  0  0  0  0  0  0  0
  1  2  1  0
  2  3  2  0
  2  4  1  0
  4  5  1  0
  5  6  1  0
  6  7  1  0
  7  8  1  0
  8  9  2  0
  8 10  1  0
 10 11  1  0
 11 12  1  0
 12 13  1  0
 13 14  2  0
 14 15  1  0
 15 16  1  0
 16 17  2  0
 17 18  1  0
 17 19  1  0
 19 20  2  0
 20 21  1  0
 16 22  1  0
 21 22  2  0
 22 23  1  0
 12 24  2  0
 15 24  1  0
  7 25  1  0
  4 26  1  0
 25 26  1  0
M  END
