piperidine-amides-13005-covalent
     RDKit          3D

 20 20  0  0  0  0  0  0  0  0999 V2000
    7.1030   -3.2700   19.2150 C   0  0  0  0  0  0  0  0  0  0  0  0
    6.3500   -4.0430   20.2290 C   0  0  0  0  0  0  0  0  0  0  0  0
    5.2650   -4.5380   19.8700 O   0  0  0  0  0  0  0  0  0  0  0  0
    6.8710   -4.2420   21.5140 N   0  0  0  0  0  0  0  0  0  0  0  0
    7.5740   -3.1800   22.1420 C   0  0  0  0  0  0  0  0  0  0  0  0
    7.0850   -2.9180   23.4890 C   0  0  0  0  0  0  0  0  0  0  0  0
    5.7830   -3.5530   23.7770 C   0  0  0  0  0  0  0  0  0  0  0  0
    5.3370   -3.2600   25.1680 C   0  0  0  0  0  0  0  0  0  0  0  0
    4.1520   -3.4970   25.4560 O   0  0  0  0  0  0  0  0  0  0  0  0
    6.1930   -2.7330   26.1500 N   0  0  0  0  0  0  0  0  0  0  0  0
    7.1150   -3.5710   26.9260 C   0  0  1  0  0  0  0  0  0  0  0  0
    6.6510   -4.9960   27.0430 C   0  0  0  0  0  0  0  0  0  0  0  0
    8.4650   -3.4250   26.3450 C   0  0  0  0  0  0  0  0  0  0  0  0
    8.5790   -2.6220   25.3620 O   0  0  0  0  0  0  0  0  0  0  0  0
    9.5970   -4.0830   26.8630 N   0  0  0  0  0  0  0  0  0  0  0  0
    9.4520   -5.2270   27.6030 C   0  0  0  0  0  0  0  0  0  0  0  0
    9.0090   -6.2340   26.8190 C   0  0  0  0  0  0  0  0  0  0  0  0
    8.6300   -5.8900   25.5680 F   0  0  0  0  0  0  0  0  0  0  0  0
    5.6930   -5.0010   23.3900 C   0  0  0  0  0  0  0  0  0  0  0  0
    6.4420   -5.3530   22.2940 C   0  0  0  0  0  0  0  0  0  0  0  0
  1  2  1  0
  2  3  2  0
  2  4  1  0
  4  5  1  0
  5  6  1  0
  6  7  1  0
  7  8  1  0
  8  9  2  0
  8 10  1  0
 10 11  1  0
 11 12  1  6
 11 13  1  0
 13 14  2  0
 13 15  1  0
 15 16  1  0
 16 17  1  0
 17 18  1  0
  7 19  1  0
  4 20  1  0
 19 20  1  0
M  END
