piperidine-amides-2056-covalent
     RDKit          3D

 28 29  0  0  0  0  0  0  0  0999 V2000
    7.0920   -3.2850   19.2910 C   0  0  0  0  0  0  0  0  0  0  0  0
    6.3310   -4.0580   20.3060 C   0  0  0  0  0  0  0  0  0  0  0  0
    5.3150   -4.6320   19.9170 O   0  0  0  0  0  0  0  0  0  0  0  0
    6.7910   -4.1470   21.6240 N   0  0  0  0  0  0  0  0  0  0  0  0
    7.6630   -3.1440   22.2030 C   0  0  0  0  0  0  0  0  0  0  0  0
    7.3820   -2.9970   23.6730 C   0  0  0  0  0  0  0  0  0  0  0  0
    6.0280   -3.6360   23.9930 C   0  0  0  0  0  0  0  0  0  0  0  0
    5.6050   -3.3050   25.3760 C   0  0  0  0  0  0  0  0  0  0  0  0
    4.3940   -3.2630   25.6240 O   0  0  0  0  0  0  0  0  0  0  0  0
    6.5340   -3.0230   26.4050 N   0  0  0  0  0  0  0  0  0  0  0  0
    6.3410   -3.5260   27.7640 C   0  0  2  0  0  0  0  0  0  0  0  0
    6.2150   -5.0330   27.7740 C   0  0  0  0  0  0  0  0  0  0  0  0
    5.8200   -5.6680   26.6150 O   0  0  0  0  0  0  0  0  0  0  0  0
    6.4940   -5.6900   28.9430 O   0  0  0  0  0  0  0  0  0  0  0  0
    5.9200   -6.9140   29.1870 C   0  0  0  0  0  0  0  0  0  0  0  0
    5.1620   -2.8260   28.3920 C   0  0  0  0  0  0  0  0  0  0  0  0
    5.5990   -2.0380   29.3960 C   0  0  0  0  0  0  0  0  0  0  0  0
    4.8120   -1.1430   30.3310 C   0  0  0  0  0  0  0  0  0  0  0  0
    3.3340   -1.2220   30.0020 C   0  0  0  0  0  0  0  0  0  0  0  0
    2.4990   -0.4630   30.7710 O   0  0  0  0  0  0  0  0  0  0  0  0
    1.7300   -1.0250   31.8210 C   0  0  0  0  0  0  0  0  0  0  0  0
    0.2860   -0.7880   31.5150 C   0  0  0  0  0  0  0  0  0  0  0  0
   -0.1010   -0.0980   30.3980 F   0  0  0  0  0  0  0  0  0  0  0  0
   -0.3790   -2.0010   31.5630 F   0  0  0  0  0  0  0  0  0  0  0  0
    2.8960   -2.0430   28.9580 C   0  0  0  0  0  0  0  0  0  0  0  0
    3.8480   -2.8800   28.1170 C   0  0  0  0  0  0  0  0  0  0  0  0
    6.1230   -5.1310   23.7710 C   0  0  0  0  0  0  0  0  0  0  0  0
    6.6250   -5.3770   22.3710 C   0  0  0  0  0  0  0  0  0  0  0  0
  1  2  1  0
  2  3  2  0
  2  4  1  0
  4  5  1  0
  5  6  1  0
  6  7  1  0
  7  8  1  0
  8  9  2  0
  8 10  1  0
 11 10  1  6
 11 12  1  0
 12 13  2  0
 12 14  1  0
 14 15  1  0
 11 16  1  0
 16 17  2  0
 17 18  1  0
 18 19  2  0
 19 20  1  0
 20 21  1  0
 21 22  1  0
 22 23  1  0
 22 24  1  0
 19 25  1  0
 16 26  1  0
 25 26  2  0
  7 27  1  0
  4 28  1  0
 27 28  1  0
M  END
