piperidine-amides-25835-covalent
     RDKit          3D

 24 26  0  0  0  0  0  0  0  0999 V2000
    7.1000   -3.3530   19.3000 C   0  0  0  0  0  0  0  0  0  0  0  0
    6.3850   -4.1850   20.2950 C   0  0  0  0  0  0  0  0  0  0  0  0
    5.3210   -4.6850   19.9350 O   0  0  0  0  0  0  0  0  0  0  0  0
    6.9510   -4.4280   21.5480 N   0  0  0  0  0  0  0  0  0  0  0  0
    6.5980   -5.5860   22.3210 C   0  0  0  0  0  0  0  0  0  0  0  0
    6.3240   -5.1780   23.7430 C   0  0  0  0  0  0  0  0  0  0  0  0
    5.8880   -3.7090   23.8110 C   0  0  0  0  0  0  0  0  0  0  0  0
    5.4820   -3.3930   25.1870 C   0  0  0  0  0  0  0  0  0  0  0  0
    4.6060   -2.5380   25.3610 O   0  0  0  0  0  0  0  0  0  0  0  0
    6.0380   -4.0140   26.3080 N   0  0  0  0  0  0  0  0  0  0  0  0
    6.0550   -3.2300   27.5520 C   0  0  0  0  0  0  0  0  0  0  0  0
    5.6210   -4.0680   28.7310 C   0  0  1  0  0  0  0  0  0  0  0  0
    4.8260   -5.1980   28.7360 C   0  0  0  0  0  0  0  0  0  0  0  0
    5.4190   -6.1810   29.5160 F   0  0  0  0  0  0  0  0  0  0  0  0
    3.5030   -4.9440   29.0870 F   0  0  0  0  0  0  0  0  0  0  0  0
    4.6680   -5.8140   27.4360 F   0  0  0  0  0  0  0  0  0  0  0  0
    6.2910   -5.2890   28.9150 C   0  0  0  0  0  0  0  0  0  0  0  0
    7.1130   -5.5030   27.8870 C   0  0  0  0  0  0  0  0  0  0  0  0
    8.1180   -6.3390   28.0270 N   0  0  0  0  0  0  0  0  0  0  0  0
    8.8150   -6.4030   26.8470 N   0  0  0  0  0  0  0  0  0  0  0  0
    8.2140   -5.5810   25.9500 N   0  0  0  0  0  0  0  0  0  0  0  0
    7.1280   -4.9660   26.5520 C   0  0  0  0  0  0  0  0  0  0  0  0
    6.9050   -2.7640   23.2740 C   0  0  0  0  0  0  0  0  0  0  0  0
    7.7280   -3.3930   22.2040 C   0  0  0  0  0  0  0  0  0  0  0  0
  1  2  1  0
  2  3  2  0
  2  4  1  0
  4  5  1  0
  5  6  1  0
  6  7  1  0
  7  8  1  0
  8  9  2  0
  8 10  1  0
 10 11  1  0
 11 12  1  0
 12 13  1  6
 13 14  1  0
 13 15  1  0
 13 16  1  0
 12 17  1  0
 17 18  1  0
 18 19  1  0
 19 20  2  0
 20 21  1  0
 10 22  1  0
 18 22  2  0
 21 22  1  0
  7 23  1  0
  4 24  1  0
 23 24  1  0
M  END
