piperidine-amides-28711-covalent
     RDKit          3D

 25 27  0  0  0  0  0  0  0  0999 V2000
    7.0520   -3.3540   19.3300 C   0  0  0  0  0  0  0  0  0  0  0  0
    6.4180   -4.2160   20.3250 C   0  0  0  0  0  0  0  0  0  0  0  0
    5.3980   -4.8440   19.9850 O   0  0  0  0  0  0  0  0  0  0  0  0
    6.9980   -4.3540   21.6120 N   0  0  0  0  0  0  0  0  0  0  0  0
    6.6860   -5.5150   22.3940 C   0  0  0  0  0  0  0  0  0  0  0  0
    5.9420   -5.1040   23.6400 C   0  0  0  0  0  0  0  0  0  0  0  0
    6.7200   -3.9970   24.3340 C   0  0  0  0  0  0  0  0  0  0  0  0
    5.9420   -3.4980   25.5140 C   0  0  0  0  0  0  0  0  0  0  0  0
    4.9200   -2.8720   25.2440 O   0  0  0  0  0  0  0  0  0  0  0  0
    6.3850   -3.7670   26.8100 N   0  0  0  0  0  0  0  0  0  0  0  0
    5.4930   -3.5440   27.8720 C   0  0  0  0  0  0  0  0  0  0  0  0
    5.8380   -4.2770   29.0190 C   0  0  0  0  0  0  0  0  0  0  0  0
    5.7070   -5.7590   28.8030 N   0  0  0  0  0  0  0  0  0  0  0  0
    5.7280   -6.8040   29.7600 C   0  0  0  0  0  0  0  0  0  0  0  0
    4.5730   -7.2380   30.3770 C   0  0  0  0  0  0  0  0  0  0  0  0
    4.7100   -7.1120   31.8370 C   0  0  0  0  0  0  0  0  0  0  0  0
    3.5670   -7.5320   32.7710 C   0  0  0  0  0  0  0  0  0  0  0  0
    2.3060   -8.0760   32.1690 C   0  0  0  0  0  0  0  0  0  0  0  0
    2.2100   -8.1890   30.6470 C   0  0  0  0  0  0  0  0  0  0  0  0
    0.7720   -8.8150   29.8590 Cl  0  0  0  0  0  0  0  0  0  0  0  0
    3.4300   -7.7320   29.7920 C   0  0  0  0  0  0  0  0  0  0  0  0
    5.9580   -5.7380   27.3720 C   0  0  0  0  0  0  0  0  0  0  0  0
    7.0390   -4.9960   27.0440 C   0  0  0  0  0  0  0  0  0  0  0  0
    6.9380   -2.8320   23.4290 C   0  0  0  0  0  0  0  0  0  0  0  0
    7.7010   -3.2650   22.2260 C   0  0  0  0  0  0  0  0  0  0  0  0
  1  2  1  0
  2  3  2  0
  2  4  1  0
  4  5  1  0
  5  6  1  0
  6  7  1  0
  7  8  1  0
  8  9  2  0
  8 10  1  0
 10 11  1  0
 11 12  1  0
 12 13  1  0
 13 14  1  0
 14 15  1  0
 15 16  2  0
 16 17  1  0
 17 18  2  0
 18 19  1  0
 19 20  1  0
 15 21  1  0
 19 21  2  0
 13 22  1  0
 10 23  1  0
 22 23  1  0
  7 24  1  0
  4 25  1  0
 24 25  1  0
M  END
