piperidine-amides-11866-covalent
     RDKit          3D

 26 27  0  0  0  0  0  0  0  0999 V2000
    7.1520   -3.2680   19.1440 C   0  0  0  0  0  0  0  0  0  0  0  0
    6.3730   -3.9930   20.1420 C   0  0  0  0  0  0  0  0  0  0  0  0
    5.2790   -4.4740   19.8550 O   0  0  0  0  0  0  0  0  0  0  0  0
    6.9170   -4.2090   21.4430 N   0  0  0  0  0  0  0  0  0  0  0  0
    7.7320   -3.1830   22.0440 C   0  0  0  0  0  0  0  0  0  0  0  0
    7.0430   -2.6390   23.2470 C   0  0  0  0  0  0  0  0  0  0  0  0
    6.5700   -3.8350   24.0400 C   0  0  0  0  0  0  0  0  0  0  0  0
    5.8450   -3.3310   25.2160 C   0  0  0  0  0  0  0  0  0  0  0  0
    4.6100   -3.1550   25.2260 O   0  0  0  0  0  0  0  0  0  0  0  0
    6.5980   -3.0380   26.3620 N   0  0  0  0  0  0  0  0  0  0  0  0
    5.8910   -3.0850   27.5960 C   0  0  1  0  0  0  0  0  0  0  0  0
    6.4820   -4.1460   28.4840 C   0  0  0  0  0  0  0  0  0  0  0  0
    6.0950   -5.4610   28.3050 C   0  0  0  0  0  0  0  0  0  0  0  0
    6.0870   -5.9140   27.0310 F   0  0  0  0  0  0  0  0  0  0  0  0
    6.9680   -6.2500   29.0270 F   0  0  0  0  0  0  0  0  0  0  0  0
    4.8460   -5.7060   28.8480 F   0  0  0  0  0  0  0  0  0  0  0  0
    5.8430   -1.7630   28.2560 C   0  0  0  0  0  0  0  0  0  0  0  0
    4.8660   -0.8370   27.9280 C   0  0  0  0  0  0  0  0  0  0  0  0
    4.8330    0.4480   28.5840 C   0  0  0  0  0  0  0  0  0  0  0  0
    3.5700    1.6080   28.1370 Cl  0  0  0  0  0  0  0  0  0  0  0  0
    5.7520    0.7670   29.5310 C   0  0  0  0  0  0  0  0  0  0  0  0
    6.7250   -0.1440   29.8660 C   0  0  0  0  0  0  0  0  0  0  0  0
    7.8810    0.3000   31.0840 Cl  0  0  0  0  0  0  0  0  0  0  0  0
    6.7720   -1.4000   29.2290 C   0  0  0  0  0  0  0  0  0  0  0  0
    5.8010   -4.8410   23.3310 C   0  0  0  0  0  0  0  0  0  0  0  0
    6.5000   -5.3220   22.2450 C   0  0  0  0  0  0  0  0  0  0  0  0
  1  2  1  0
  2  3  2  0
  2  4  1  0
  4  5  1  0
  5  6  1  0
  6  7  1  0
  7  8  1  0
  8  9  2  0
  8 10  1  0
 10 11  1  0
 11 12  1  1
 12 13  1  0
 13 14  1  0
 13 15  1  0
 13 16  1  0
 11 17  1  0
 17 18  2  0
 18 19  1  0
 19 20  1  0
 19 21  2  0
 21 22  1  0
 22 23  1  0
 17 24  1  0
 22 24  2  0
  7 25  1  0
  4 26  1  0
 25 26  1  0
M  END
