piperidine-amides-33776-covalent
     RDKit          3D

 28 30  0  0  0  0  0  0  0  0999 V2000
    7.0100   -3.3830   19.4010 C   0  0  0  0  0  0  0  0  0  0  0  0
    6.3870   -4.2680   20.4050 C   0  0  0  0  0  0  0  0  0  0  0  0
    5.4130   -4.9520   20.0060 O   0  0  0  0  0  0  0  0  0  0  0  0
    6.8950   -4.3650   21.7370 N   0  0  0  0  0  0  0  0  0  0  0  0
    6.5770   -5.5180   22.5260 C   0  0  0  0  0  0  0  0  0  0  0  0
    6.0260   -5.1720   23.8340 C   0  0  0  0  0  0  0  0  0  0  0  0
    6.0470   -3.7200   24.0510 C   0  0  0  0  0  0  0  0  0  0  0  0
    5.4050   -3.2140   25.3400 C   0  0  0  0  0  0  0  0  0  0  0  0
    4.8060   -2.1320   25.2710 O   0  0  0  0  0  0  0  0  0  0  0  0
    5.3910   -3.8520   26.6160 N   0  0  0  0  0  0  0  0  0  0  0  0
    4.2860   -4.2290   27.3680 C   0  0  0  0  0  0  0  0  0  0  0  0
    4.5380   -4.5470   28.7790 C   0  0  0  0  0  0  0  0  0  0  0  0
    5.7400   -4.9100   29.2640 N   0  0  0  0  0  0  0  0  0  0  0  0
    5.5560   -6.4800   29.8610 S   0  0  0  0  0  0  0  0  0  0  0  0
    6.1830   -7.4330   28.9000 O   0  0  0  0  0  0  0  0  0  0  0  0
    6.1310   -6.7290   31.2180 O   0  0  0  0  0  0  0  0  0  0  0  0
    3.7960   -6.6400   29.8710 C   0  0  0  0  0  0  0  0  0  0  0  0
    3.3120   -5.9780   30.9900 C   0  0  0  0  0  0  0  0  0  0  0  0
    1.7370   -6.0070   31.1820 C   0  0  0  0  0  0  0  0  0  0  0  0
    0.7800   -6.7160   30.2070 C   0  0  0  0  0  0  0  0  0  0  0  0
   -0.5870   -6.6500   30.5180 F   0  0  0  0  0  0  0  0  0  0  0  0
    1.5400   -7.3660   29.0650 C   0  0  0  0  0  0  0  0  0  0  0  0
    0.6400   -7.9920   28.2120 F   0  0  0  0  0  0  0  0  0  0  0  0
    2.9880   -7.3410   28.8870 C   0  0  0  0  0  0  0  0  0  0  0  0
    6.7890   -4.6490   28.4790 C   0  0  0  0  0  0  0  0  0  0  0  0
    6.4300   -3.5140   27.4780 C   0  0  0  0  0  0  0  0  0  0  0  0
    7.4200   -3.2040   23.7380 C   0  0  0  0  0  0  0  0  0  0  0  0
    7.6050   -3.2380   22.3430 C   0  0  0  0  0  0  0  0  0  0  0  0
  1  2  1  0
  2  3  2  0
  2  4  1  0
  4  5  1  0
  5  6  1  0
  6  7  1  0
  7  8  1  0
  8  9  2  0
  8 10  1  0
 10 11  1  0
 11 12  1  0
 12 13  1  0
 13 14  1  0
 14 15  2  0
 14 16  2  0
 14 17  1  0
 17 18  2  0
 18 19  1  0
 19 20  2  0
 20 21  1  0
 20 22  1  0
 22 23  1  0
 17 24  1  0
 22 24  2  0
 13 25  1  0
 10 26  1  0
 25 26  1  0
  7 27  1  0
  4 28  1  0
 27 28  1  0
M  END
