piperidine-amides-25671-covalent
     RDKit          3D

 23 25  0  0  0  0  0  0  0  0999 V2000
    7.1000   -3.3200   19.2660 C   0  0  0  0  0  0  0  0  0  0  0  0
    6.4090   -4.1760   20.2640 C   0  0  0  0  0  0  0  0  0  0  0  0
    5.3470   -4.7010   19.9340 O   0  0  0  0  0  0  0  0  0  0  0  0
    7.0010   -4.4020   21.4970 N   0  0  0  0  0  0  0  0  0  0  0  0
    6.6550   -5.5550   22.2960 C   0  0  0  0  0  0  0  0  0  0  0  0
    5.9120   -5.1280   23.5410 C   0  0  0  0  0  0  0  0  0  0  0  0
    6.0270   -3.6100   23.7110 C   0  0  0  0  0  0  0  0  0  0  0  0
    5.6420   -3.2410   25.0650 C   0  0  0  0  0  0  0  0  0  0  0  0
    5.3020   -2.0830   25.3230 O   0  0  0  0  0  0  0  0  0  0  0  0
    5.6240   -4.1930   26.0610 N   0  0  0  0  0  0  0  0  0  0  0  0
    4.3870   -4.3660   26.7310 C   0  0  0  0  0  0  0  0  0  0  0  0
    4.8900   -5.0510   27.9220 C   0  0  1  0  0  0  0  0  0  0  0  0
    6.2590   -5.2910   27.8370 C   0  0  1  0  0  0  0  0  0  0  0  0
    6.7570   -4.5080   26.8390 C   0  0  0  0  0  0  0  0  0  0  0  0
    6.8150   -4.6790   29.0910 C   0  0  2  0  0  0  0  0  0  0  0  0
    6.3200   -5.5100   30.0560 O   0  0  0  0  0  0  0  0  0  0  0  0
    6.2020   -6.8390   29.8060 C   0  0  0  0  0  0  0  0  0  0  0  0
    6.0450   -3.4710   29.2970 C   0  0  0  0  0  0  0  0  0  0  0  0
    4.6310   -4.3410   29.4320 S   0  0  0  0  0  0  0  0  0  0  0  0
    3.4960   -3.3660   29.3230 O   0  0  0  0  0  0  0  0  0  0  0  0
    4.5130   -5.2930   30.5870 O   0  0  0  0  0  0  0  0  0  0  0  0
    7.3660   -3.1230   23.4510 C   0  0  0  0  0  0  0  0  0  0  0  0
    7.7370   -3.3040   22.0580 C   0  0  0  0  0  0  0  0  0  0  0  0
  1  2  1  0
  2  3  2  0
  2  4  1  0
  4  5  1  0
  5  6  1  0
  6  7  1  0
  7  8  1  0
  8  9  2  0
  8 10  1  0
 10 11  1  0
 12 11  1  6
 12 13  1  0
 10 14  1  0
 13 14  1  6
 13 15  1  0
 15 16  1  1
 16 17  1  0
 15 18  1  0
 12 19  1  0
 19 18  1  0
 19 20  2  0
 19 21  2  0
  7 22  1  0
  4 23  1  0
 22 23  1  0
M  END
