piperidine-amides-19410-covalent
     RDKit          3D

 22 24  0  0  0  0  0  0  0  0999 V2000
    7.1710   -3.2610   19.2910 C   0  0  0  0  0  0  0  0  0  0  0  0
    6.3840   -4.0140   20.2410 C   0  0  0  0  0  0  0  0  0  0  0  0
    5.2830   -4.5210   19.8680 O   0  0  0  0  0  0  0  0  0  0  0  0
    6.8310   -4.2350   21.5480 N   0  0  0  0  0  0  0  0  0  0  0  0
    6.4840   -5.5200   22.1970 C   0  0  0  0  0  0  0  0  0  0  0  0
    5.5100   -4.9800   23.3050 C   0  0  0  0  0  0  0  0  0  0  0  0
    6.3850   -4.0890   24.1490 C   0  0  0  0  0  0  0  0  0  0  0  0
    5.7460   -3.7220   25.5540 C   0  0  0  0  0  0  0  0  0  0  0  0
    4.5480   -3.4410   25.5100 O   0  0  0  0  0  0  0  0  0  0  0  0
    6.7200   -3.8420   26.3620 N   0  0  0  0  0  0  0  0  0  0  0  0
    7.8600   -4.0270   26.9060 C   0  0  0  0  0  0  0  0  0  0  0  0
    7.6210   -3.7810   28.1480 C   0  0  0  0  0  0  0  0  0  0  0  0
    6.2260   -3.5030   27.7700 C   0  0  1  0  0  0  0  0  0  0  0  0
    5.6540   -2.1820   28.1080 C   0  0  0  0  0  0  0  0  0  0  0  0
    6.5840   -1.0980   27.7190 C   0  0  0  0  0  0  0  0  0  0  0  0
    5.8980    0.1150   28.1050 C   0  0  0  0  0  0  0  0  0  0  0  0
    4.6110    0.5020   28.7360 C   0  0  0  0  0  0  0  0  0  0  0  0
    3.8940   -0.8660   29.0120 C   0  0  0  0  0  0  0  0  0  0  0  0
    4.3880   -2.2810   28.7080 C   0  0  0  0  0  0  0  0  0  0  0  0
    3.6220   -3.4120   29.0180 F   0  0  0  0  0  0  0  0  0  0  0  0
    6.8390   -2.8500   23.3620 C   0  0  0  0  0  0  0  0  0  0  0  0
    7.5790   -3.2290   22.2780 C   0  0  0  0  0  0  0  0  0  0  0  0
  1  2  1  0
  2  3  2  0
  2  4  1  0
  4  5  1  0
  5  6  1  0
  6  7  1  0
  7  8  1  0
  8  9  2  0
  8 10  1  0
 10 11  1  0
 11 12  1  0
 10 13  1  0
 12 13  1  0
 13 14  1  6
 14 15  2  0
 15 16  1  0
 16 17  2  0
 17 18  1  0
 14 19  1  0
 18 19  2  0
 19 20  1  0
  7 21  1  0
  4 22  1  0
 21 22  1  0
M  END
