piperidine-amides-27126-covalent
     RDKit          3D

 25 27  0  0  0  0  0  0  0  0999 V2000
    7.0850   -3.2770   19.2430 C   0  0  0  0  0  0  0  0  0  0  0  0
    6.3560   -4.0390   20.2680 C   0  0  0  0  0  0  0  0  0  0  0  0
    5.2900   -4.5970   19.9010 O   0  0  0  0  0  0  0  0  0  0  0  0
    6.8650   -4.1600   21.5630 N   0  0  0  0  0  0  0  0  0  0  0  0
    6.6400   -5.3490   22.3480 C   0  0  0  0  0  0  0  0  0  0  0  0
    6.0230   -4.9460   23.6630 C   0  0  0  0  0  0  0  0  0  0  0  0
    6.6450   -3.7030   24.2640 C   0  0  0  0  0  0  0  0  0  0  0  0
    5.7380   -3.1740   25.3120 C   0  0  0  0  0  0  0  0  0  0  0  0
    4.5260   -3.0760   25.0140 O   0  0  0  0  0  0  0  0  0  0  0  0
    6.1120   -2.7790   26.6220 N   0  0  0  0  0  0  0  0  0  0  0  0
    5.4500   -1.6080   27.1860 C   0  0  0  0  0  0  0  0  0  0  0  0
    5.2670   -2.3710   28.3870 C   0  0  0  0  0  0  0  0  0  0  0  0
    5.5690   -1.5270   29.5600 N   0  0  0  0  0  0  0  0  0  0  0  0
    4.6420   -1.3690   30.4990 C   0  0  0  0  0  0  0  0  0  0  0  0
    4.8280   -0.3530   31.4240 C   0  0  0  0  0  0  0  0  0  0  0  0
    5.4580    0.7490   30.9820 N   0  0  0  0  0  0  0  0  0  0  0  0
    5.6000    1.6690   32.0560 C   0  0  0  0  0  0  0  0  0  0  0  0
    6.7470    1.4810   32.8130 C   0  0  0  0  0  0  0  0  0  0  0  0
    7.3070    0.2000   32.9240 O   0  0  0  0  0  0  0  0  0  0  0  0
    8.1530   -0.0570   34.0320 C   0  0  0  0  0  0  0  0  0  0  0  0
    6.5550    0.6450   30.0990 C   0  0  0  0  0  0  0  0  0  0  0  0
    6.7870   -0.8080   29.6850 C   0  0  0  0  0  0  0  0  0  0  0  0
    6.0490   -3.4210   28.0110 C   0  0  0  0  0  0  0  0  0  0  0  0
    6.8600   -2.6270   23.2400 C   0  0  0  0  0  0  0  0  0  0  0  0
    7.6340   -3.0890   22.2000 C   0  0  0  0  0  0  0  0  0  0  0  0
  1  2  1  0
  2  3  2  0
  2  4  1  0
  4  5  1  0
  5  6  1  0
  6  7  1  0
  7  8  1  0
  8  9  2  0
  8 10  1  0
 10 11  1  0
 11 12  1  0
 12 13  1  0
 13 14  1  0
 14 15  1  0
 15 16  1  0
 16 17  1  0
 17 18  1  0
 18 19  1  0
 19 20  1  0
 16 21  1  0
 13 22  1  0
 21 22  1  0
 10 23  1  0
 12 23  1  0
  7 24  1  0
  4 25  1  0
 24 25  1  0
M  END
