piperidine-amides-11577-covalent
     RDKit          3D

 20 21  0  0  0  0  0  0  0  0999 V2000
    7.0770   -3.3420   19.2730 C   0  0  0  0  0  0  0  0  0  0  0  0
    6.4040   -4.1500   20.2900 C   0  0  0  0  0  0  0  0  0  0  0  0
    5.3910   -4.7980   19.9750 O   0  0  0  0  0  0  0  0  0  0  0  0
    6.9240   -4.2390   21.5930 N   0  0  0  0  0  0  0  0  0  0  0  0
    7.7660   -3.2040   22.1330 C   0  0  0  0  0  0  0  0  0  0  0  0
    7.0420   -2.7030   23.3430 C   0  0  0  0  0  0  0  0  0  0  0  0
    6.6280   -3.8210   24.2570 C   0  0  0  0  0  0  0  0  0  0  0  0
    5.8030   -3.3170   25.3750 C   0  0  0  0  0  0  0  0  0  0  0  0
    4.5570   -3.1460   25.2210 O   0  0  0  0  0  0  0  0  0  0  0  0
    6.3320   -3.0080   26.6450 N   0  0  0  0  0  0  0  0  0  0  0  0
    6.6930   -1.6210   27.0250 C   0  0  1  0  0  0  0  0  0  0  0  0
    5.6820   -0.6550   26.6450 C   0  0  0  0  0  0  0  0  0  0  0  0
    5.1830   -0.2170   28.1580 S   0  0  0  0  0  0  0  0  0  0  0  0
    5.4440    1.1910   28.5240 O   0  0  0  0  0  0  0  0  0  0  0  0
    3.7680   -0.6250   28.5150 O   0  0  0  0  0  0  0  0  0  0  0  0
    6.4770   -1.4130   28.5750 C   0  0  0  0  0  0  0  0  0  0  0  0
    5.7930   -2.6890   28.9890 C   0  0  0  0  0  0  0  0  0  0  0  0
    7.6310   -1.0210   29.4390 C   0  0  0  0  0  0  0  0  0  0  0  0
    5.8430   -4.8680   23.5230 C   0  0  0  0  0  0  0  0  0  0  0  0
    6.4720   -5.3270   22.3990 C   0  0  0  0  0  0  0  0  0  0  0  0
  1  2  1  0
  2  3  2  0
  2  4  1  0
  4  5  1  0
  5  6  1  0
  6  7  1  0
  7  8  1  0
  8  9  2  0
  8 10  1  0
 11 10  1  1
 11 12  1  0
 13 12  1  0
 13 14  2  0
 13 15  2  0
 11 16  1  0
 13 16  1  0
 16 17  1  0
 16 18  1  0
  7 19  1  0
  4 20  1  0
 19 20  1  0
M  END
