piperidine-amides-31640-covalent
     RDKit          3D

 27 30  0  0  0  0  0  0  0  0999 V2000
    7.1170   -3.4120   19.3200 C   0  0  0  0  0  0  0  0  0  0  0  0
    6.4070   -4.1510   20.3360 C   0  0  0  0  0  0  0  0  0  0  0  0
    5.3540   -4.7640   19.9720 O   0  0  0  0  0  0  0  0  0  0  0  0
    6.8580   -4.2800   21.6720 N   0  0  0  0  0  0  0  0  0  0  0  0
    7.8560   -3.3310   22.2050 C   0  0  0  0  0  0  0  0  0  0  0  0
    6.9550   -2.6060   23.2580 C   0  0  0  0  0  0  0  0  0  0  0  0
    6.4370   -3.6790   24.1910 C   0  0  0  0  0  0  0  0  0  0  0  0
    5.4010   -2.9680   25.1650 C   0  0  0  0  0  0  0  0  0  0  0  0
    4.3880   -2.6680   24.5540 O   0  0  0  0  0  0  0  0  0  0  0  0
    5.8760   -2.8900   26.3340 N   0  0  0  0  0  0  0  0  0  0  0  0
    6.2910   -3.1660   27.5750 C   0  0  0  0  0  0  0  0  0  0  0  0
    6.7270   -4.2710   28.1840 C   0  0  1  0  0  0  0  0  0  0  0  0
    5.7400   -5.2060   28.5720 C   0  0  0  0  0  0  0  0  0  0  0  0
    6.2870   -6.5790   28.7670 C   0  0  0  0  0  0  0  0  0  0  0  0
    7.5790   -6.1260   28.0500 C   0  0  0  0  0  0  0  0  0  0  0  0
    7.4000   -5.0260   27.2670 O   0  0  0  0  0  0  0  0  0  0  0  0
    6.0460   -1.5810   27.0130 C   0  0  0  0  0  0  0  0  0  0  0  0
    5.7750   -0.2980   26.4730 N   0  0  0  0  0  0  0  0  0  0  0  0
    5.9920    0.8680   27.3010 C   0  0  0  0  0  0  0  0  0  0  0  0
    5.7710    2.3320   26.9320 C   0  0  0  0  0  0  0  0  0  0  0  0
    6.1350    3.2600   28.1410 C   0  0  0  0  0  0  0  0  0  0  0  0
    6.5870    2.7590   29.3440 C   0  0  0  0  0  0  0  0  0  0  0  0
    6.7370    1.4050   29.5260 C   0  0  0  0  0  0  0  0  0  0  0  0
    6.4390    0.5490   28.5180 C   0  0  0  0  0  0  0  0  0  0  0  0
    6.6130   -1.1440   28.6960 S   0  0  0  0  0  0  0  0  0  0  0  0
    5.8800   -4.9590   23.6130 C   0  0  0  0  0  0  0  0  0  0  0  0
    6.5530   -5.4160   22.4750 C   0  0  0  0  0  0  0  0  0  0  0  0
  1  2  1  0
  2  3  2  0
  2  4  1  0
  4  5  1  0
  5  6  1  0
  6  7  1  0
  7  8  1  0
  8  9  2  0
  8 10  1  0
 10 11  1  0
 12 11  1  6
 12 13  1  0
 13 14  1  0
 14 15  1  0
 12 16  1  0
 15 16  1  0
 10 17  1  0
 17 18  2  0
 18 19  1  0
 19 20  2  0
 20 21  1  0
 21 22  2  0
 22 23  1  0
 19 24  1  0
 23 24  2  0
 17 25  1  0
 24 25  1  0
  7 26  1  0
  4 27  1  0
 26 27  1  0
M  END
