piperidine-amides-31261-covalent
     RDKit          3D

 23 24  0  0  0  0  0  0  0  0999 V2000
    7.0610   -3.3350   19.3090 C   0  0  0  0  0  0  0  0  0  0  0  0
    6.3650   -4.1470   20.3050 C   0  0  0  0  0  0  0  0  0  0  0  0
    5.3590   -4.7910   19.9660 O   0  0  0  0  0  0  0  0  0  0  0  0
    6.8480   -4.2490   21.6170 N   0  0  0  0  0  0  0  0  0  0  0  0
    7.6370   -3.2020   22.2250 C   0  0  0  0  0  0  0  0  0  0  0  0
    6.8170   -2.7610   23.4020 C   0  0  0  0  0  0  0  0  0  0  0  0
    6.5450   -3.9170   24.3130 C   0  0  0  0  0  0  0  0  0  0  0  0
    5.8100   -3.5340   25.5500 C   0  0  0  0  0  0  0  0  0  0  0  0
    4.5400   -3.3940   25.5540 O   0  0  0  0  0  0  0  0  0  0  0  0
    6.4710   -3.2990   26.7810 N   0  0  0  0  0  0  0  0  0  0  0  0
    6.4560   -1.9290   27.3830 C   0  0  0  0  0  0  0  0  0  0  0  0
    5.9270   -0.8390   26.5530 C   0  0  0  0  0  0  0  0  0  0  0  0
    5.8900    0.5180   27.1280 C   0  0  0  0  0  0  0  0  0  0  0  0
    6.3880    0.7810   28.5370 C   0  0  0  0  0  0  0  0  0  0  0  0
    6.3260    2.5550   29.2640 Br  0  0  0  0  0  0  0  0  0  0  0  0
    6.9350   -0.3880   29.3580 C   0  0  0  0  0  0  0  0  0  0  0  0
    6.9080   -1.6730   28.6610 N   0  0  0  0  0  0  0  0  0  0  0  0
    6.7270   -4.4160   27.6660 C   0  0  1  0  0  0  0  0  0  0  0  0
    6.0290   -5.5130   27.2600 C   0  0  0  0  0  0  0  0  0  0  0  0
    7.5170   -5.6170   27.1530 C   0  0  0  0  0  0  0  0  0  0  0  0
    8.2020   -5.6200   25.9340 O   0  0  0  0  0  0  0  0  0  0  0  0
    5.7510   -5.0260   23.5960 C   0  0  0  0  0  0  0  0  0  0  0  0
    6.5700   -5.4490   22.3660 C   0  0  0  0  0  0  0  0  0  0  0  0
  1  2  1  0
  2  3  2  0
  2  4  1  0
  4  5  1  0
  5  6  1  0
  6  7  1  0
  7  8  1  0
  8  9  2  0
  8 10  1  0
 10 11  1  0
 11 12  2  0
 12 13  1  0
 13 14  2  0
 14 15  1  0
 14 16  1  0
 11 17  1  0
 16 17  2  0
 10 18  1  0
 18 19  1  6
 18 20  1  0
 20 21  1  0
  7 22  1  0
  4 23  1  0
 22 23  1  0
M  END
