piperidine-amides-13900-covalent
     RDKit          3D

 26 28  0  0  0  0  0  0  0  0999 V2000
    7.1140   -3.3460   19.3040 C   0  0  0  0  0  0  0  0  0  0  0  0
    6.3790   -4.1730   20.2920 C   0  0  0  0  0  0  0  0  0  0  0  0
    5.3270   -4.7350   19.9510 O   0  0  0  0  0  0  0  0  0  0  0  0
    6.9370   -4.3450   21.5720 N   0  0  0  0  0  0  0  0  0  0  0  0
    7.7190   -3.3110   22.1930 C   0  0  0  0  0  0  0  0  0  0  0  0
    6.8370   -2.7080   23.2780 C   0  0  0  0  0  0  0  0  0  0  0  0
    6.4640   -3.8190   24.1980 C   0  0  0  0  0  0  0  0  0  0  0  0
    5.7300   -3.3080   25.3700 C   0  0  0  0  0  0  0  0  0  0  0  0
    4.4960   -3.3140   25.2860 O   0  0  0  0  0  0  0  0  0  0  0  0
    6.4240   -2.8380   26.4890 N   0  0  0  0  0  0  0  0  0  0  0  0
    5.9600   -1.8800   27.4260 C   0  0  0  0  0  0  0  0  0  0  0  0
    4.9580   -2.0860   28.3500 C   0  0  0  0  0  0  0  0  0  0  0  0
    4.5150   -3.4710   28.3270 O   0  0  0  0  0  0  0  0  0  0  0  0
    4.4180   -1.1420   29.2170 O   0  0  0  0  0  0  0  0  0  0  0  0
    4.3200   -1.4130   30.6220 C   0  0  0  0  0  0  0  0  0  0  0  0
    5.1280   -0.5490   31.3220 C   0  0  0  0  0  0  0  0  0  0  0  0
    5.8820   -0.6470   26.7240 C   0  0  0  0  0  0  0  0  0  0  0  0
    5.8340    0.5240   27.7030 C   0  0  0  0  0  0  0  0  0  0  0  0
    6.4740    0.8860   29.1480 C   0  0  0  0  0  0  0  0  0  0  0  0
    6.2280    1.9990   29.7500 C   0  0  0  0  0  0  0  0  0  0  0  0
    5.4370    2.4410   28.7980 C   0  0  0  0  0  0  0  0  0  0  0  0
    5.6810    1.0930   27.9680 C   0  0  0  0  0  0  0  0  0  0  0  0
    6.6430    0.1670   28.7780 C   0  0  0  0  0  0  0  0  0  0  0  0
    7.0500   -1.2210   28.1480 C   0  0  0  0  0  0  0  0  0  0  0  0
    5.7150   -4.9490   23.5530 C   0  0  0  0  0  0  0  0  0  0  0  0
    6.5620   -5.4680   22.3930 C   0  0  0  0  0  0  0  0  0  0  0  0
  1  2  1  0
  2  3  2  0
  2  4  1  0
  4  5  1  0
  5  6  1  0
  6  7  1  0
  7  8  1  0
  8  9  2  0
  8 10  1  0
 10 11  1  0
 11 12  1  0
 12 13  2  0
 12 14  1  0
 14 15  1  0
 15 16  1  0
 11 17  1  0
 17 18  1  0
 18 19  1  0
 19 20  2  0
 20 21  1  0
 21 22  2  0
 18 23  2  0
 22 23  1  0
 11 24  1  0
 23 24  1  0
  7 25  1  0
  4 26  1  0
 25 26  1  0
M  END
