piperidine-amides-19823-covalent
     RDKit          3D

 22 24  0  0  0  0  0  0  0  0999 V2000
    7.0830   -3.3130   19.2700 C   0  0  0  0  0  0  0  0  0  0  0  0
    6.3950   -4.1500   20.2850 C   0  0  0  0  0  0  0  0  0  0  0  0
    5.3690   -4.7360   19.9470 O   0  0  0  0  0  0  0  0  0  0  0  0
    6.9510   -4.2750   21.5550 N   0  0  0  0  0  0  0  0  0  0  0  0
    6.6980   -5.4250   22.3890 C   0  0  0  0  0  0  0  0  0  0  0  0
    5.9700   -4.9810   23.6270 C   0  0  0  0  0  0  0  0  0  0  0  0
    6.6740   -3.7610   24.2230 C   0  0  0  0  0  0  0  0  0  0  0  0
    5.8370   -3.2750   25.3290 C   0  0  0  0  0  0  0  0  0  0  0  0
    4.8960   -2.5020   25.1110 O   0  0  0  0  0  0  0  0  0  0  0  0
    6.0960   -3.7130   26.6250 N   0  0  0  0  0  0  0  0  0  0  0  0
    6.2240   -2.8310   27.7170 C   0  0  0  0  0  0  0  0  0  0  0  0
    6.4480   -3.8690   28.7330 C   0  0  0  0  0  0  0  0  0  0  0  0
    5.8340   -5.0520   28.5600 C   0  0  0  0  0  0  0  0  0  0  0  0
    4.7990   -5.1690   29.3830 C   0  0  0  0  0  0  0  0  0  0  0  0
    4.0150   -6.2160   29.0040 C   0  0  0  0  0  0  0  0  0  0  0  0
    3.7090   -7.2430   30.0740 C   0  0  0  0  0  0  0  0  0  0  0  0
    5.0890   -7.0640   30.6310 C   0  0  0  0  0  0  0  0  0  0  0  0
    5.9040   -7.5070   29.4490 C   0  0  0  0  0  0  0  0  0  0  0  0
    6.6250   -6.2970   28.9050 C   0  0  0  0  0  0  0  0  0  0  0  0
    5.6730   -5.0260   27.1530 C   0  0  0  0  0  0  0  0  0  0  0  0
    7.0590   -2.6980   23.2870 C   0  0  0  0  0  0  0  0  0  0  0  0
    7.7620   -3.2060   22.1000 C   0  0  0  0  0  0  0  0  0  0  0  0
  1  2  1  0
  2  3  2  0
  2  4  1  0
  4  5  1  0
  5  6  1  0
  6  7  1  0
  7  8  1  0
  8  9  2  0
  8 10  1  0
 10 11  1  0
 11 12  1  0
 13 12  1  0
 13 14  1  0
 14 15  1  0
 15 16  1  0
 16 17  1  0
 17 18  1  0
 13 19  1  0
 18 19  1  0
 10 20  1  0
 13 20  1  0
  7 21  1  0
  4 22  1  0
 21 22  1  0
M  END
