piperidine-amides-10976-covalent
     RDKit          3D

 21 22  0  0  0  0  0  0  0  0999 V2000
    7.0800   -3.2840   19.2500 C   0  0  0  0  0  0  0  0  0  0  0  0
    6.3530   -4.0420   20.2730 C   0  0  0  0  0  0  0  0  0  0  0  0
    5.3410   -4.6810   19.9380 O   0  0  0  0  0  0  0  0  0  0  0  0
    6.7990   -4.1020   21.6070 N   0  0  0  0  0  0  0  0  0  0  0  0
    7.7030   -3.1070   22.1600 C   0  0  0  0  0  0  0  0  0  0  0  0
    7.3900   -3.0250   23.6290 C   0  0  0  0  0  0  0  0  0  0  0  0
    6.0570   -3.6320   23.9180 C   0  0  0  0  0  0  0  0  0  0  0  0
    5.5470   -3.3910   25.2900 C   0  0  0  0  0  0  0  0  0  0  0  0
    4.3250   -3.5770   25.5460 O   0  0  0  0  0  0  0  0  0  0  0  0
    6.3500   -2.9410   26.3560 N   0  0  0  0  0  0  0  0  0  0  0  0
    6.6240   -1.5000   26.5000 C   0  0  0  0  0  0  0  0  0  0  0  0
    6.2810   -1.0810   27.8770 C   0  0  0  0  0  0  0  0  0  0  0  0
    4.9680   -0.5630   27.9760 N   0  0  0  0  0  0  0  0  0  0  0  0
    4.6710   -0.1820   29.2100 N   0  0  0  0  0  0  0  0  0  0  0  0
    5.7800   -0.4170   30.0550 C   0  0  0  0  0  0  0  0  0  0  0  0
    5.7390   -0.0780   31.5230 C   0  0  0  0  0  0  0  0  0  0  0  0
    4.9660    1.2010   31.7590 C   0  0  0  0  0  0  0  0  0  0  0  0
    7.2060    0.1580   31.9320 C   0  0  0  0  0  0  0  0  0  0  0  0
    7.1770   -1.0990   29.3730 S   0  0  0  0  0  0  0  0  0  0  0  0
    6.1200   -5.1110   23.6090 C   0  0  0  0  0  0  0  0  0  0  0  0
    6.6160   -5.3520   22.3160 C   0  0  0  0  0  0  0  0  0  0  0  0
  1  2  1  0
  2  3  2  0
  2  4  1  0
  4  5  1  0
  5  6  1  0
  6  7  1  0
  7  8  1  0
  8  9  2  0
  8 10  1  0
 10 11  1  0
 11 12  1  0
 12 13  2  0
 13 14  1  0
 14 15  2  0
 15 16  1  0
 16 17  1  0
 16 18  1  0
 12 19  1  0
 15 19  1  0
  7 20  1  0
  4 21  1  0
 20 21  1  0
M  END
