piperidine-amides-3201-covalent
     RDKit          3D

 22 23  0  0  0  0  0  0  0  0999 V2000
    7.0460   -3.3450   19.2960 C   0  0  0  0  0  0  0  0  0  0  0  0
    6.3420   -4.1510   20.2860 C   0  0  0  0  0  0  0  0  0  0  0  0
    5.3330   -4.7680   19.9620 O   0  0  0  0  0  0  0  0  0  0  0  0
    6.8550   -4.2730   21.6220 N   0  0  0  0  0  0  0  0  0  0  0  0
    7.6590   -3.2320   22.2110 C   0  0  0  0  0  0  0  0  0  0  0  0
    6.9790   -2.6760   23.4210 C   0  0  0  0  0  0  0  0  0  0  0  0
    6.5230   -3.8450   24.2730 C   0  0  0  0  0  0  0  0  0  0  0  0
    5.7590   -3.3390   25.4510 C   0  0  0  0  0  0  0  0  0  0  0  0
    4.5080   -3.2750   25.5020 O   0  0  0  0  0  0  0  0  0  0  0  0
    6.5020   -2.9290   26.5820 N   0  0  0  0  0  0  0  0  0  0  0  0
    6.3710   -1.6040   27.1570 C   0  0  0  0  0  0  0  0  0  0  0  0
    7.0040   -1.5150   28.5180 C   0  0  0  0  0  0  0  0  0  0  0  0
    6.9800   -0.3720   29.2120 C   0  0  0  0  0  0  0  0  0  0  0  0
    6.3450    0.6650   28.5810 C   0  0  0  0  0  0  0  0  0  0  0  0
    5.7630    0.5270   27.2930 N   0  0  0  0  0  0  0  0  0  0  0  0
    5.6450   -0.5440   26.3500 C   0  0  0  0  0  0  0  0  0  0  0  0
    4.9960    0.6460   25.7840 C   0  0  0  0  0  0  0  0  0  0  0  0
    4.3490    0.3290   24.6230 F   0  0  0  0  0  0  0  0  0  0  0  0
    5.8720    1.7070   25.6480 F   0  0  0  0  0  0  0  0  0  0  0  0
    4.0100    1.0280   26.6860 F   0  0  0  0  0  0  0  0  0  0  0  0
    5.7380   -4.9040   23.5350 C   0  0  0  0  0  0  0  0  0  0  0  0
    6.4970   -5.3940   22.4920 C   0  0  0  0  0  0  0  0  0  0  0  0
  1  2  1  0
  2  3  2  0
  2  4  1  0
  4  5  1  0
  5  6  1  0
  6  7  1  0
  7  8  1  0
  8  9  2  0
  8 10  1  0
 10 11  1  0
 11 12  2  0
 12 13  1  0
 13 14  2  0
 14 15  1  0
 11 16  1  0
 15 16  2  0
 16 17  1  0
 17 18  1  0
 17 19  1  0
 17 20  1  0
  7 21  1  0
  4 22  1  0
 21 22  1  0
M  END
