piperidine-amides-3115-covalent
     RDKit          3D

 23 24  0  0  0  0  0  0  0  0999 V2000
    7.0750   -3.3150   19.2370 C   0  0  0  0  0  0  0  0  0  0  0  0
    6.3440   -4.1030   20.2230 C   0  0  0  0  0  0  0  0  0  0  0  0
    5.2800   -4.6280   19.9120 O   0  0  0  0  0  0  0  0  0  0  0  0
    6.8920   -4.3260   21.5300 N   0  0  0  0  0  0  0  0  0  0  0  0
    7.5420   -3.2390   22.1990 C   0  0  0  0  0  0  0  0  0  0  0  0
    6.5990   -2.6940   23.2250 C   0  0  0  0  0  0  0  0  0  0  0  0
    6.2530   -3.8350   24.1800 C   0  0  0  0  0  0  0  0  0  0  0  0
    5.3960   -3.3400   25.3070 C   0  0  0  0  0  0  0  0  0  0  0  0
    4.1740   -3.5640   25.3570 O   0  0  0  0  0  0  0  0  0  0  0  0
    5.9880   -2.5740   26.3540 N   0  0  0  0  0  0  0  0  0  0  0  0
    6.0430   -3.1000   27.6980 C   0  0  0  0  0  0  0  0  0  0  0  0
    6.3080   -4.5620   27.5990 C   0  0  0  0  0  0  0  0  0  0  0  0
    5.4660   -5.4870   27.0140 C   0  0  0  0  0  0  0  0  0  0  0  0
    6.6540   -5.0870   29.0010 C   0  0  0  0  0  0  0  0  0  0  0  0
    7.6060   -4.5960   26.7730 C   0  0  0  0  0  0  0  0  0  0  0  0
    8.1720   -5.8510   27.1260 C   0  0  0  0  0  0  0  0  0  0  0  0
    9.3210   -6.2200   26.5930 C   0  0  0  0  0  0  0  0  0  0  0  0
    9.9640   -5.4530   25.7240 C   0  0  0  0  0  0  0  0  0  0  0  0
    9.4590   -4.2350   25.3270 C   0  0  0  0  0  0  0  0  0  0  0  0
    8.2250   -3.7350   25.8760 C   0  0  0  0  0  0  0  0  0  0  0  0
    7.7840   -2.4890   25.4880 C   0  0  0  0  0  0  0  0  0  0  0  0
    5.5390   -4.9290   23.4350 C   0  0  0  0  0  0  0  0  0  0  0  0
    6.3590   -5.4080   22.2790 C   0  0  0  0  0  0  0  0  0  0  0  0
  1  2  1  0
  2  3  2  0
  2  4  1  0
  4  5  1  0
  5  6  1  0
  6  7  1  0
  7  8  1  0
  8  9  2  0
  8 10  1  0
 10 11  1  0
 12 11  1  0
 12 13  1  0
 12 14  1  0
 12 15  1  0
 15 16  2  0
 16 17  1  0
 17 18  2  0
 18 19  1  0
 15 20  1  0
 19 20  2  0
 20 21  1  0
  7 22  1  0
  4 23  1  0
 22 23  1  0
M  END
