piperidine-amides-1241-covalent
     RDKit          3D

 23 24  0  0  0  0  0  0  0  0999 V2000
    7.0700   -3.2760   19.2620 C   0  0  0  0  0  0  0  0  0  0  0  0
    6.3010   -4.0570   20.2700 C   0  0  0  0  0  0  0  0  0  0  0  0
    5.2650   -4.6330   19.9100 O   0  0  0  0  0  0  0  0  0  0  0  0
    6.7890   -4.1640   21.5860 N   0  0  0  0  0  0  0  0  0  0  0  0
    7.7270   -3.2000   22.1180 C   0  0  0  0  0  0  0  0  0  0  0  0
    7.5680   -3.1690   23.6410 C   0  0  0  0  0  0  0  0  0  0  0  0
    6.2030   -3.6760   23.9700 C   0  0  0  0  0  0  0  0  0  0  0  0
    5.7050   -3.1850   25.2790 C   0  0  0  0  0  0  0  0  0  0  0  0
    4.5020   -2.9080   25.3360 O   0  0  0  0  0  0  0  0  0  0  0  0
    6.5720   -3.0440   26.3650 N   0  0  0  0  0  0  0  0  0  0  0  0
    6.3010   -3.3500   27.7320 C   0  0  0  0  0  0  0  0  0  0  0  0
    6.3620   -4.5980   28.3150 C   0  0  0  0  0  0  0  0  0  0  0  0
    6.0620   -5.5740   27.2790 O   0  0  0  0  0  0  0  0  0  0  0  0
    4.7390   -5.9620   27.2920 C   0  0  0  0  0  0  0  0  0  0  0  0
    3.7970   -5.6350   26.3670 C   0  0  0  0  0  0  0  0  0  0  0  0
    2.3990   -6.0930   26.4710 C   0  0  0  0  0  0  0  0  0  0  0  0
    1.3070   -5.7440   25.4500 C   0  0  0  0  0  0  0  0  0  0  0  0
    2.1130   -6.8660   27.5560 C   0  0  0  0  0  0  0  0  0  0  0  0
    3.0540   -7.2200   28.5230 C   0  0  0  0  0  0  0  0  0  0  0  0
    2.7280   -8.0600   29.7000 C   0  0  0  0  0  0  0  0  0  0  0  0
    4.3760   -6.7600   28.3800 C   0  0  0  0  0  0  0  0  0  0  0  0
    6.2270   -5.1350   23.7790 C   0  0  0  0  0  0  0  0  0  0  0  0
    6.6010   -5.3930   22.3080 C   0  0  0  0  0  0  0  0  0  0  0  0
  1  2  1  0
  2  3  2  0
  2  4  1  0
  4  5  1  0
  5  6  1  0
  6  7  1  0
  7  8  1  0
  8  9  2  0
  8 10  1  0
 10 11  1  0
 11 12  1  0
 12 13  1  0
 13 14  1  0
 14 15  2  0
 15 16  1  0
 16 17  1  0
 16 18  2  0
 18 19  1  0
 19 20  1  0
 14 21  1  0
 19 21  2  0
  7 22  1  0
  4 23  1  0
 22 23  1  0
M  END
