piperidine-amides-3012-covalent
     RDKit          3D

 23 25  0  0  0  0  0  0  0  0999 V2000
    7.1040   -3.2920   19.2710 C   0  0  0  0  0  0  0  0  0  0  0  0
    6.3630   -4.0830   20.2490 C   0  0  0  0  0  0  0  0  0  0  0  0
    5.3270   -4.6610   19.9270 O   0  0  0  0  0  0  0  0  0  0  0  0
    6.8720   -4.2250   21.5830 N   0  0  0  0  0  0  0  0  0  0  0  0
    7.6150   -3.1410   22.1650 C   0  0  0  0  0  0  0  0  0  0  0  0
    6.8920   -2.6740   23.3860 C   0  0  0  0  0  0  0  0  0  0  0  0
    6.6160   -3.9140   24.2150 C   0  0  0  0  0  0  0  0  0  0  0  0
    5.9120   -3.5000   25.4550 C   0  0  0  0  0  0  0  0  0  0  0  0
    4.8270   -2.8800   25.4320 O   0  0  0  0  0  0  0  0  0  0  0  0
    6.5030   -3.8170   26.7030 N   0  0  0  0  0  0  0  0  0  0  0  0
    6.9520   -5.1780   26.9260 C   0  0  0  0  0  0  0  0  0  0  0  0
    5.8280   -5.9290   27.5830 C   0  0  0  0  0  0  0  0  0  0  0  0
    4.6570   -6.2680   26.9110 C   0  0  0  0  0  0  0  0  0  0  0  0
    3.6200   -6.9650   27.5590 C   0  0  0  0  0  0  0  0  0  0  0  0
    3.7570   -7.3220   28.8780 C   0  0  0  0  0  0  0  0  0  0  0  0
    2.8420   -8.0270   29.7430 C   0  0  0  0  0  0  0  0  0  0  0  0
    3.3930   -8.1660   30.9770 N   0  0  0  0  0  0  0  0  0  0  0  0
    4.5790   -7.5640   30.8070 N   0  0  0  0  0  0  0  0  0  0  0  0
    5.3420   -7.5780   31.9180 C   0  0  0  0  0  0  0  0  0  0  0  0
    4.8910   -6.9930   29.5040 C   0  0  0  0  0  0  0  0  0  0  0  0
    5.9320   -6.3120   28.9070 C   0  0  0  0  0  0  0  0  0  0  0  0
    5.8920   -4.9690   23.5130 C   0  0  0  0  0  0  0  0  0  0  0  0
    6.6120   -5.3850   22.4000 C   0  0  0  0  0  0  0  0  0  0  0  0
  1  2  1  0
  2  3  2  0
  2  4  1  0
  4  5  1  0
  5  6  1  0
  6  7  1  0
  7  8  1  0
  8  9  2  0
  8 10  1  0
 10 11  1  0
 11 12  1  0
 12 13  2  0
 13 14  1  0
 14 15  2  0
 15 16  1  0
 16 17  2  0
 17 18  1  0
 18 19  1  0
 15 20  1  0
 18 20  1  0
 12 21  1  0
 20 21  2  0
  7 22  1  0
  4 23  1  0
 22 23  1  0
M  END
