piperidine-amides-17215-covalent
     RDKit          3D

 20 21  0  0  0  0  0  0  0  0999 V2000
    7.0820   -3.3480   19.2710 C   0  0  0  0  0  0  0  0  0  0  0  0
    6.3990   -4.1710   20.2850 C   0  0  0  0  0  0  0  0  0  0  0  0
    5.3260   -4.7260   19.9480 O   0  0  0  0  0  0  0  0  0  0  0  0
    6.9770   -4.3740   21.5620 N   0  0  0  0  0  0  0  0  0  0  0  0
    6.5170   -5.4660   22.3430 C   0  0  0  0  0  0  0  0  0  0  0  0
    5.9740   -5.0680   23.6450 C   0  0  0  0  0  0  0  0  0  0  0  0
    6.6020   -3.8790   24.2780 C   0  0  0  0  0  0  0  0  0  0  0  0
    5.7980   -3.4240   25.4680 C   0  0  0  0  0  0  0  0  0  0  0  0
    4.7870   -2.7150   25.2760 O   0  0  0  0  0  0  0  0  0  0  0  0
    6.1350   -3.7800   26.7960 N   0  0  0  0  0  0  0  0  0  0  0  0
    6.0560   -2.9950   27.9230 C   0  0  0  0  0  0  0  0  0  0  0  0
    5.8370   -3.8540   29.0360 C   0  0  0  0  0  0  0  0  0  0  0  0
    5.0420   -5.0150   28.4130 C   0  0  2  0  0  0  0  0  0  0  0  0
    4.9450   -6.1260   29.2220 C   0  0  0  0  0  0  0  0  0  0  0  0
    4.4970   -6.9700   28.0310 C   0  0  0  0  0  0  0  0  0  0  0  0
    6.2780   -6.6790   29.7260 C   0  0  0  0  0  0  0  0  0  0  0  0
    3.9750   -6.1300   30.2010 O   0  0  0  0  0  0  0  0  0  0  0  0
    5.9210   -5.1470   27.2210 C   0  0  0  0  0  0  0  0  0  0  0  0
    6.8550   -2.7450   23.3290 C   0  0  0  0  0  0  0  0  0  0  0  0
    7.7040   -3.3010   22.2090 C   0  0  0  0  0  0  0  0  0  0  0  0
  1  2  1  0
  2  3  2  0
  2  4  1  0
  4  5  1  0
  5  6  1  0
  6  7  1  0
  7  8  1  0
  8  9  2  0
  8 10  1  0
 10 11  1  0
 11 12  1  0
 12 13  1  0
 13 14  1  1
 14 15  1  0
 14 16  1  0
 14 17  1  0
 10 18  1  0
 13 18  1  0
  7 19  1  0
  4 20  1  0
 19 20  1  0
M  END
