piperidine-amides-23262-covalent
     RDKit          3D

 24 26  0  0  0  0  0  0  0  0999 V2000
    7.0610   -3.4100   19.4170 C   0  0  0  0  0  0  0  0  0  0  0  0
    6.4180   -4.2680   20.4250 C   0  0  0  0  0  0  0  0  0  0  0  0
    5.4330   -4.9360   20.0150 O   0  0  0  0  0  0  0  0  0  0  0  0
    6.9240   -4.3720   21.7590 N   0  0  0  0  0  0  0  0  0  0  0  0
    6.5990   -5.5310   22.5310 C   0  0  0  0  0  0  0  0  0  0  0  0
    5.9630   -5.1550   23.7810 C   0  0  0  0  0  0  0  0  0  0  0  0
    5.9300   -3.6910   23.8490 C   0  0  0  0  0  0  0  0  0  0  0  0
    5.0680   -3.1000   24.9500 C   0  0  0  0  0  0  0  0  0  0  0  0
    4.0840   -2.4410   24.6000 O   0  0  0  0  0  0  0  0  0  0  0  0
    5.2460   -3.2260   26.3380 N   0  0  0  0  0  0  0  0  0  0  0  0
    4.4120   -3.9180   27.2470 C   0  0  0  0  0  0  0  0  0  0  0  0
    5.0260   -4.7400   28.3260 C   0  0  0  0  0  0  0  0  0  0  0  0
    6.0620   -3.8720   29.0520 C   0  0  0  0  0  0  0  0  0  0  0  0
    5.5300   -2.6060   29.3180 C   0  0  0  0  0  0  0  0  0  0  0  0
    4.1540   -2.4960   29.6010 N   0  0  0  0  0  0  0  0  0  0  0  0
    3.4340   -1.2960   29.9000 C   0  0  0  0  0  0  0  0  0  0  0  0
    4.0740    0.0710   29.9590 C   0  0  0  0  0  0  0  0  0  0  0  0
    5.5550   -0.1310   29.6480 C   0  0  0  0  0  0  0  0  0  0  0  0
    6.2290   -1.4240   29.3440 C   0  0  0  0  0  0  0  0  0  0  0  0
    7.7030   -1.2710   29.0860 C   0  0  0  0  0  0  0  0  0  0  0  0
    6.2570   -4.3540   27.6970 C   0  0  0  0  0  0  0  0  0  0  0  0
    6.5170   -3.2020   26.8090 C   0  0  0  0  0  0  0  0  0  0  0  0
    7.2860   -3.0930   23.6720 C   0  0  0  0  0  0  0  0  0  0  0  0
    7.6920   -3.2770   22.3400 C   0  0  0  0  0  0  0  0  0  0  0  0
  1  2  1  0
  2  3  2  0
  2  4  1  0
  4  5  1  0
  5  6  1  0
  6  7  1  0
  7  8  1  0
  8  9  2  0
  8 10  1  0
 10 11  1  0
 11 12  1  0
 12 13  1  0
 13 14  1  0
 14 15  2  0
 15 16  1  0
 16 17  2  0
 17 18  1  0
 14 19  1  0
 18 19  2  0
 19 20  1  0
 13 21  1  0
 10 22  1  0
 21 22  1  0
  7 23  1  0
  4 24  1  0
 23 24  1  0
M  END
