piperidine-amides-35420-covalent
     RDKit          3D

 29 31  0  0  0  0  0  0  0  0999 V2000
    7.1390   -3.2480   19.1700 C   0  0  0  0  0  0  0  0  0  0  0  0
    6.3690   -4.0100   20.1910 C   0  0  0  0  0  0  0  0  0  0  0  0
    5.2870   -4.4790   19.8520 O   0  0  0  0  0  0  0  0  0  0  0  0
    6.9070   -4.2150   21.4600 N   0  0  0  0  0  0  0  0  0  0  0  0
    6.4760   -5.3350   22.2490 C   0  0  0  0  0  0  0  0  0  0  0  0
    5.6910   -4.7960   23.4080 C   0  0  0  0  0  0  0  0  0  0  0  0
    6.5370   -3.7680   24.1660 C   0  0  0  0  0  0  0  0  0  0  0  0
    5.7460   -3.3010   25.3200 C   0  0  0  0  0  0  0  0  0  0  0  0
    4.5120   -3.2570   25.2270 O   0  0  0  0  0  0  0  0  0  0  0  0
    6.3630   -2.9220   26.5300 N   0  0  0  0  0  0  0  0  0  0  0  0
    6.2200   -3.8180   27.6510 C   0  0  0  0  0  0  0  0  0  0  0  0
    5.8550   -5.1600   27.0590 C   0  0  0  0  0  0  0  0  0  0  0  0
    6.4130   -6.1970   27.7560 O   0  0  0  0  0  0  0  0  0  0  0  0
    6.6390   -6.2230   29.0580 C   0  0  0  0  0  0  0  0  0  0  0  0
    6.7050   -1.5710   26.7920 C   0  0  0  0  0  0  0  0  0  0  0  0
    5.6540   -0.7040   26.9370 C   0  0  0  0  0  0  0  0  0  0  0  0
    5.6680    0.2870   27.8200 N   0  0  0  0  0  0  0  0  0  0  0  0
    4.3960    0.9760   27.6640 C   0  0  0  0  0  0  0  0  0  0  0  0
    4.0980    2.1620   28.5230 C   0  0  0  0  0  0  0  0  0  0  0  0
    2.7520    1.8970   29.1730 C   0  0  0  0  0  0  0  0  0  0  0  0
    2.2640    2.9850   30.0880 C   0  0  0  0  0  0  0  0  0  0  0  0
    3.1270    4.1840   30.2610 C   0  0  0  0  0  0  0  0  0  0  0  0
    4.4560    4.3720   29.5780 C   0  0  0  0  0  0  0  0  0  0  0  0
    5.5080    5.9380   29.8450 Br  0  0  0  0  0  0  0  0  0  0  0  0
    4.9020    3.2780   28.6850 C   0  0  0  0  0  0  0  0  0  0  0  0
    3.4200    0.4870   26.6540 C   0  0  0  0  0  0  0  0  0  0  0  0
    4.2290   -0.8480   25.9620 S   0  0  0  0  0  0  0  0  0  0  0  0
    6.8600   -2.6150   23.2530 C   0  0  0  0  0  0  0  0  0  0  0  0
    7.6100   -3.1210   22.0590 C   0  0  0  0  0  0  0  0  0  0  0  0
  1  2  1  0
  2  3  2  0
  2  4  1  0
  4  5  1  0
  5  6  1  0
  6  7  1  0
  7  8  1  0
  8  9  2  0
  8 10  1  0
 10 11  1  0
 11 12  1  0
 12 13  1  0
 13 14  1  0
 10 15  1  0
 15 16  1  0
 16 17  2  0
 17 18  1  0
 18 19  1  0
 19 20  2  0
 20 21  1  0
 21 22  2  0
 22 23  1  0
 23 24  1  0
 19 25  1  0
 23 25  2  0
 18 26  2  0
 16 27  1  0
 26 27  1  0
  7 28  1  0
  4 29  1  0
 28 29  1  0
M  END
