piperidine-amides-30107-covalent
     RDKit          3D

 27 30  0  0  0  0  0  0  0  0999 V2000
    7.1220   -3.3160   19.3420 C   0  0  0  0  0  0  0  0  0  0  0  0
    6.3590   -4.0890   20.3130 C   0  0  0  0  0  0  0  0  0  0  0  0
    5.3430   -4.6880   19.9460 O   0  0  0  0  0  0  0  0  0  0  0  0
    6.8150   -4.2000   21.6770 N   0  0  0  0  0  0  0  0  0  0  0  0
    7.7330   -3.2070   22.2250 C   0  0  0  0  0  0  0  0  0  0  0  0
    7.3780   -2.8850   23.6520 C   0  0  0  0  0  0  0  0  0  0  0  0
    6.0110   -3.4830   23.8540 C   0  0  0  0  0  0  0  0  0  0  0  0
    5.3060   -3.0540   25.1020 C   0  0  0  0  0  0  0  0  0  0  0  0
    4.0820   -2.8610   25.0650 O   0  0  0  0  0  0  0  0  0  0  0  0
    5.9460   -2.8550   26.3570 N   0  0  0  0  0  0  0  0  0  0  0  0
    6.5290   -1.6050   26.6540 C   0  0  0  0  0  0  0  0  0  0  0  0
    5.7700   -1.8070   27.9230 C   0  0  0  0  0  0  0  0  0  0  0  0
    4.9770   -0.7230   28.2290 C   0  0  0  0  0  0  0  0  0  0  0  0
    5.7810    0.4210   28.2800 C   0  0  0  0  0  0  0  0  0  0  0  0
    6.9830    0.0390   28.8920 O   0  0  0  0  0  0  0  0  0  0  0  0
    6.9650   -1.0830   29.7410 C   0  0  0  0  0  0  0  0  0  0  0  0
    6.5570   -2.2770   28.9900 C   0  0  0  0  0  0  0  0  0  0  0  0
    5.0910   -2.9920   27.5270 C   0  0  1  0  0  0  0  0  0  0  0  0
    3.7060   -3.0950   27.4420 C   0  0  0  0  0  0  0  0  0  0  0  0
    2.9180   -4.0930   26.8860 C   0  0  0  0  0  0  0  0  0  0  0  0
    1.5850   -3.8090   27.0090 N   0  0  0  0  0  0  0  0  0  0  0  0
    1.3960   -2.6240   27.6430 N   0  0  0  0  0  0  0  0  0  0  0  0
    0.2120   -1.8490   28.0330 C   0  0  0  0  0  0  0  0  0  0  0  0
   -0.1110   -0.9570   27.0250 C   0  0  0  0  0  0  0  0  0  0  0  0
    2.6900   -2.1830   27.9100 C   0  0  0  0  0  0  0  0  0  0  0  0
    6.0770   -4.9910   23.7900 C   0  0  0  0  0  0  0  0  0  0  0  0
    6.6220   -5.4220   22.4180 C   0  0  0  0  0  0  0  0  0  0  0  0
  1  2  1  0
  2  3  2  0
  2  4  1  0
  4  5  1  0
  5  6  1  0
  6  7  1  0
  7  8  1  0
  8  9  2  0
  8 10  1  0
 10 11  1  0
 12 11  1  0
 12 13  1  0
 13 14  1  0
 14 15  1  0
 15 16  1  0
 12 17  1  0
 16 17  1  0
 10 18  1  0
 12 18  1  0
 18 19  1  6
 19 20  1  0
 20 21  2  0
 21 22  1  0
 22 23  1  0
 23 24  1  0
 19 25  2  0
 22 25  1  0
  7 26  1  0
  4 27  1  0
 26 27  1  0
M  END
