piperidine-amides-12143-covalent
     RDKit          3D

 25 26  0  0  0  0  0  0  0  0999 V2000
    7.1420   -3.2550   19.2210 C   0  0  0  0  0  0  0  0  0  0  0  0
    6.3640   -4.0080   20.2030 C   0  0  0  0  0  0  0  0  0  0  0  0
    5.3060   -4.5440   19.8810 O   0  0  0  0  0  0  0  0  0  0  0  0
    6.8570   -4.1660   21.5370 N   0  0  0  0  0  0  0  0  0  0  0  0
    6.5890   -5.3820   22.2600 C   0  0  0  0  0  0  0  0  0  0  0  0
    6.1070   -5.0690   23.6550 C   0  0  0  0  0  0  0  0  0  0  0  0
    6.2200   -3.5700   23.8870 C   0  0  0  0  0  0  0  0  0  0  0  0
    5.9800   -3.2160   25.3010 C   0  0  0  0  0  0  0  0  0  0  0  0
    4.8340   -3.1530   25.7930 O   0  0  0  0  0  0  0  0  0  0  0  0
    7.1230   -2.9320   26.0880 N   0  0  0  0  0  0  0  0  0  0  0  0
    7.2760   -3.5890   27.3570 C   0  0  2  0  0  0  0  0  0  0  0  0
    6.6100   -4.9420   27.2870 C   0  0  0  0  0  0  0  0  0  0  0  0
    6.7130   -5.7670   28.3760 C   0  0  0  0  0  0  0  0  0  0  0  0
    7.8490   -6.0690   28.7820 O   0  0  0  0  0  0  0  0  0  0  0  0
    5.6490   -6.2950   29.0780 O   0  0  0  0  0  0  0  0  0  0  0  0
    5.4280   -7.6420   29.3480 C   0  0  0  0  0  0  0  0  0  0  0  0
    6.7330   -2.6410   28.3640 C   0  0  0  0  0  0  0  0  0  0  0  0
    5.3260   -2.5660   28.6110 C   0  0  0  0  0  0  0  0  0  0  0  0
    4.8450   -1.6960   29.5340 C   0  0  0  0  0  0  0  0  0  0  0  0
    5.7280   -0.8890   30.2300 C   0  0  0  0  0  0  0  0  0  0  0  0
    7.1400   -0.8150   30.1310 C   0  0  0  0  0  0  0  0  0  0  0  0
    8.1380    0.0000   30.8300 C   0  0  0  0  0  0  0  0  0  0  0  0
    7.5990   -1.8320   29.0580 C   0  0  0  0  0  0  0  0  0  0  0  0
    7.5810   -3.0660   23.5260 C   0  0  0  0  0  0  0  0  0  0  0  0
    7.7050   -3.1460   22.0550 C   0  0  0  0  0  0  0  0  0  0  0  0
  1  2  1  0
  2  3  2  0
  2  4  1  0
  4  5  1  0
  5  6  1  0
  6  7  1  0
  7  8  1  0
  8  9  2  0
  8 10  1  0
 10 11  1  0
 11 12  1  6
 12 13  1  0
 13 14  2  0
 13 15  1  0
 15 16  1  0
 11 17  1  0
 17 18  2  0
 18 19  1  0
 19 20  2  0
 20 21  1  0
 21 22  1  0
 17 23  1  0
 21 23  2  0
  7 24  1  0
  4 25  1  0
 24 25  1  0
M  END
