piperidine-amides-5378-covalent
     RDKit          3D

 21 21  0  0  0  0  0  0  0  0999 V2000
    7.1560   -3.2640   19.1730 C   0  0  0  0  0  0  0  0  0  0  0  0
    6.4010   -3.9840   20.1960 C   0  0  0  0  0  0  0  0  0  0  0  0
    5.3320   -4.5440   19.8910 O   0  0  0  0  0  0  0  0  0  0  0  0
    6.8980   -4.0940   21.5020 N   0  0  0  0  0  0  0  0  0  0  0  0
    7.7900   -3.1130   22.0740 C   0  0  0  0  0  0  0  0  0  0  0  0
    7.0710   -2.5810   23.2730 C   0  0  0  0  0  0  0  0  0  0  0  0
    6.6250   -3.6840   24.1750 C   0  0  0  0  0  0  0  0  0  0  0  0
    5.8750   -3.1690   25.3390 C   0  0  0  0  0  0  0  0  0  0  0  0
    4.7930   -2.5300   25.1740 O   0  0  0  0  0  0  0  0  0  0  0  0
    6.2980   -3.3610   26.6690 N   0  0  0  0  0  0  0  0  0  0  0  0
    5.7330   -4.5010   27.4130 C   0  0  2  0  0  0  0  0  0  0  0  0
    6.4280   -4.6480   28.6970 C   0  0  0  0  0  0  0  0  0  0  0  0
    6.6140   -6.0400   29.1480 C   0  0  0  0  0  0  0  0  0  0  0  0
    5.6860   -6.7650   30.0900 C   0  0  0  0  0  0  0  0  0  0  0  0
    5.6690   -5.8050   26.8850 C   0  0  0  0  0  0  0  0  0  0  0  0
    4.2940   -6.3770   26.9060 C   0  0  0  0  0  0  0  0  0  0  0  0
    4.1090   -7.2670   25.8490 F   0  0  0  0  0  0  0  0  0  0  0  0
    3.9500   -6.9490   28.0950 F   0  0  0  0  0  0  0  0  0  0  0  0
    3.3230   -5.3940   26.7490 F   0  0  0  0  0  0  0  0  0  0  0  0
    5.7970   -4.6940   23.3980 C   0  0  0  0  0  0  0  0  0  0  0  0
    6.4950   -5.2180   22.3050 C   0  0  0  0  0  0  0  0  0  0  0  0
  1  2  1  0
  2  3  2  0
  2  4  1  0
  4  5  1  0
  5  6  1  0
  6  7  1  0
  7  8  1  0
  8  9  2  0
  8 10  1  0
 10 11  1  0
 11 12  1  1
 12 13  1  0
 13 14  2  3
 11 15  1  0
 15 16  1  0
 16 17  1  0
 16 18  1  0
 16 19  1  0
  7 20  1  0
  4 21  1  0
 20 21  1  0
M  END
