piperidine-amides-19272-covalent
     RDKit          3D

 22 23  0  0  0  0  0  0  0  0999 V2000
    7.0040   -3.3590   19.2510 C   0  0  0  0  0  0  0  0  0  0  0  0
    6.2640   -4.0770   20.2750 C   0  0  0  0  0  0  0  0  0  0  0  0
    5.2250   -4.6950   19.9130 O   0  0  0  0  0  0  0  0  0  0  0  0
    6.6490   -4.1570   21.6260 N   0  0  0  0  0  0  0  0  0  0  0  0
    7.5630   -3.1040   22.1160 C   0  0  0  0  0  0  0  0  0  0  0  0
    7.3940   -3.2800   23.6590 C   0  0  0  0  0  0  0  0  0  0  0  0
    5.9930   -3.7250   23.8650 C   0  0  0  0  0  0  0  0  0  0  0  0
    5.3800   -3.2540   25.2630 C   0  0  0  0  0  0  0  0  0  0  0  0
    4.3820   -2.5790   25.0640 O   0  0  0  0  0  0  0  0  0  0  0  0
    6.0650   -3.7000   26.2540 N   0  0  0  0  0  0  0  0  0  0  0  0
    6.5690   -4.6000   27.1560 C   0  0  0  0  0  0  0  0  0  0  0  0
    7.4980   -5.6070   27.1910 C   0  0  0  0  0  0  0  0  0  0  0  0
    6.4330   -2.4170   26.8590 C   0  0  0  0  0  0  0  0  0  0  0  0
    5.3570   -1.5040   27.2810 C   0  0  0  0  0  0  0  0  0  0  0  0
    4.0470   -2.1020   27.6290 C   0  0  0  0  0  0  0  0  0  0  0  0
    3.1940   -1.0090   28.0040 C   0  0  0  0  0  0  0  0  0  0  0  0
    3.2200    0.4570   28.1410 C   0  0  0  0  0  0  0  0  0  0  0  0
    4.6850    0.8470   27.7240 C   0  0  0  0  0  0  0  0  0  0  0  0
    5.1110    2.3500   27.7410 C   0  0  0  0  0  0  0  0  0  0  0  0
    5.7310   -0.0870   27.3070 C   0  0  0  0  0  0  0  0  0  0  0  0
    5.7660   -5.1730   23.4810 C   0  0  0  0  0  0  0  0  0  0  0  0
    6.4940   -5.4030   22.3500 C   0  0  0  0  0  0  0  0  0  0  0  0
  1  2  1  0
  2  3  2  0
  2  4  1  0
  4  5  1  0
  5  6  1  0
  6  7  1  0
  7  8  1  0
  8  9  2  0
  8 10  1  0
 10 11  1  0
 11 12  1  0
 10 13  1  0
 13 14  1  0
 14 15  2  0
 15 16  1  0
 16 17  2  0
 17 18  1  0
 18 19  1  0
 14 20  1  0
 18 20  2  0
  7 21  1  0
  4 22  1  0
 21 22  1  0
M  END
