piperidine-amides-14125-covalent
     RDKit          3D

 25 27  0  0  0  0  0  0  0  0999 V2000
    7.1100   -3.3230   19.3340 C   0  0  0  0  0  0  0  0  0  0  0  0
    6.3470   -4.1370   20.3150 C   0  0  0  0  0  0  0  0  0  0  0  0
    5.3090   -4.7130   19.9430 O   0  0  0  0  0  0  0  0  0  0  0  0
    6.8510   -4.2780   21.6240 N   0  0  0  0  0  0  0  0  0  0  0  0
    6.5830   -5.4320   22.4370 C   0  0  0  0  0  0  0  0  0  0  0  0
    5.6910   -4.9550   23.5890 C   0  0  0  0  0  0  0  0  0  0  0  0
    6.4550   -3.8960   24.3250 C   0  0  0  0  0  0  0  0  0  0  0  0
    5.7090   -3.3610   25.5050 C   0  0  0  0  0  0  0  0  0  0  0  0
    4.4790   -3.4380   25.4190 O   0  0  0  0  0  0  0  0  0  0  0  0
    6.3500   -2.7870   26.6320 N   0  0  0  0  0  0  0  0  0  0  0  0
    6.2980   -1.3830   26.9090 C   0  0  0  0  0  0  0  0  0  0  0  0
    6.1210   -0.4410   25.9100 C   0  0  0  0  0  0  0  0  0  0  0  0
    6.0550    0.9580   26.1070 C   0  0  0  0  0  0  0  0  0  0  0  0
    6.1690    1.5220   27.3400 C   0  0  0  0  0  0  0  0  0  0  0  0
    6.3550    0.6120   28.4340 C   0  0  0  0  0  0  0  0  0  0  0  0
    6.4170   -0.8710   28.2300 C   0  0  0  0  0  0  0  0  0  0  0  0
    6.5890   -1.4720   29.4830 N   0  0  0  0  0  0  0  0  0  0  0  0
    5.6600   -0.9870   30.4660 C   0  0  0  0  0  0  0  0  0  0  0  0
    5.7200    0.3820   30.6250 C   0  0  0  0  0  0  0  0  0  0  0  0
    7.0190    1.0820   30.8140 C   0  0  0  0  0  0  0  0  0  0  0  0
    6.9720    1.7820   31.8490 O   0  0  0  0  0  0  0  0  0  0  0  0
    7.7560   -0.2490   30.8840 C   0  0  0  0  0  0  0  0  0  0  0  0
    7.8300   -1.0590   29.7640 C   0  0  0  0  0  0  0  0  0  0  0  0
    6.8770   -2.7330   23.4870 C   0  0  0  0  0  0  0  0  0  0  0  0
    7.6050   -3.2000   22.2450 C   0  0  0  0  0  0  0  0  0  0  0  0
  1  2  1  0
  2  3  2  0
  2  4  1  0
  4  5  1  0
  5  6  1  0
  6  7  1  0
  7  8  1  0
  8  9  2  0
  8 10  1  0
 10 11  1  0
 11 12  2  0
 12 13  1  0
 13 14  2  0
 14 15  1  0
 11 16  1  0
 15 16  2  0
 16 17  1  0
 17 18  1  0
 18 19  1  0
 19 20  1  0
 20 21  1  0
 20 22  1  0
 17 23  1  0
 22 23  1  0
  7 24  1  0
  4 25  1  0
 24 25  1  0
M  END
