piperidine-amides-27971-covalent
     RDKit          3D

 26 28  0  0  0  0  0  0  0  0999 V2000
    7.0010   -3.3710   19.3840 C   0  0  0  0  0  0  0  0  0  0  0  0
    6.3860   -4.2410   20.4180 C   0  0  0  0  0  0  0  0  0  0  0  0
    5.4260   -4.9330   20.0100 O   0  0  0  0  0  0  0  0  0  0  0  0
    6.8750   -4.3200   21.7520 N   0  0  0  0  0  0  0  0  0  0  0  0
    6.4910   -5.4230   22.5810 C   0  0  0  0  0  0  0  0  0  0  0  0
    5.7700   -5.0010   23.7940 C   0  0  0  0  0  0  0  0  0  0  0  0
    5.7690   -3.5280   23.9690 C   0  0  0  0  0  0  0  0  0  0  0  0
    4.9730   -3.0260   25.1680 C   0  0  0  0  0  0  0  0  0  0  0  0
    3.8560   -2.5560   24.9250 O   0  0  0  0  0  0  0  0  0  0  0  0
    5.3870   -3.0710   26.5180 N   0  0  0  0  0  0  0  0  0  0  0  0
    4.6590   -2.6190   27.7140 C   0  0  0  0  0  0  0  0  0  0  0  0
    5.1280   -3.3620   28.9540 C   0  0  0  0  0  0  0  0  0  0  0  0
    5.9630   -4.5690   28.8620 C   0  0  0  0  0  0  0  0  0  0  0  0
    5.5900   -5.6000   29.6690 C   0  0  0  0  0  0  0  0  0  0  0  0
    6.3640   -6.7150   29.5070 C   0  0  0  0  0  0  0  0  0  0  0  0
    6.0890   -7.7830   30.2510 C   0  0  0  0  0  0  0  0  0  0  0  0
    5.0540   -7.8020   31.1790 N   0  0  0  0  0  0  0  0  0  0  0  0
    4.3020   -6.6040   31.2780 C   0  0  0  0  0  0  0  0  0  0  0  0
    3.3470   -6.7930   32.2200 C   0  0  0  0  0  0  0  0  0  0  0  0
    3.8630   -6.6080   33.5080 C   0  0  0  0  0  0  0  0  0  0  0  0
    2.9330   -8.1140   32.2550 C   0  0  0  0  0  0  0  0  0  0  0  0
    4.5380   -5.4900   30.5400 N   0  0  0  0  0  0  0  0  0  0  0  0
    5.9290   -5.2260   27.6630 C   0  0  0  0  0  0  0  0  0  0  0  0
    6.1850   -4.1330   26.7120 C   0  0  0  0  0  0  0  0  0  0  0  0
    7.0790   -2.8940   23.7270 C   0  0  0  0  0  0  0  0  0  0  0  0
    7.6860   -3.2670   22.3720 C   0  0  0  0  0  0  0  0  0  0  0  0
  1  2  1  0
  2  3  2  0
  2  4  1  0
  4  5  1  0
  5  6  1  0
  6  7  1  0
  7  8  1  0
  8  9  2  0
  8 10  1  0
 10 11  1  0
 11 12  1  0
 12 13  1  0
 13 14  1  0
 14 15  2  0
 15 16  1  0
 16 17  2  0
 17 18  1  0
 18 19  1  0
 19 20  1  0
 19 21  1  0
 14 22  1  0
 18 22  2  0
 13 23  1  0
 10 24  1  0
 23 24  1  0
  7 25  1  0
  4 26  1  0
 25 26  1  0
M  END
