piperidine-amides-2195-covalent
     RDKit          3D

 29 31  0  0  0  0  0  0  0  0999 V2000
    7.0930   -3.3230   19.3070 C   0  0  0  0  0  0  0  0  0  0  0  0
    6.3960   -4.1700   20.3070 C   0  0  0  0  0  0  0  0  0  0  0  0
    5.3640   -4.7370   19.9510 O   0  0  0  0  0  0  0  0  0  0  0  0
    6.9500   -4.3350   21.5780 N   0  0  0  0  0  0  0  0  0  0  0  0
    6.5990   -5.4390   22.4240 C   0  0  0  0  0  0  0  0  0  0  0  0
    5.8220   -4.9260   23.6080 C   0  0  0  0  0  0  0  0  0  0  0  0
    6.5640   -3.7420   24.2450 C   0  0  0  0  0  0  0  0  0  0  0  0
    5.7770   -3.2850   25.4060 C   0  0  0  0  0  0  0  0  0  0  0  0
    4.5560   -3.1170   25.2910 O   0  0  0  0  0  0  0  0  0  0  0  0
    6.4000   -3.0360   26.6390 N   0  0  0  0  0  0  0  0  0  0  0  0
    6.3360   -1.6980   27.1800 C   0  0  0  0  0  0  0  0  0  0  0  0
    7.0050   -1.5160   28.5040 C   0  0  0  0  0  0  0  0  0  0  0  0
    7.1000   -0.3780   29.2460 C   0  0  0  0  0  0  0  0  0  0  0  0
    6.5070    0.7420   28.7180 C   0  0  0  0  0  0  0  0  0  0  0  0
    6.4530    2.0100   29.2570 O   0  0  0  0  0  0  0  0  0  0  0  0
    6.8410    2.0500   30.5800 C   0  0  0  0  0  0  0  0  0  0  0  0
    5.9360    3.0360   31.2910 C   0  0  0  0  0  0  0  0  0  0  0  0
    6.4010    2.6370   32.6630 C   0  0  0  0  0  0  0  0  0  0  0  0
    5.4140    3.0610   33.6600 N   0  0  0  0  0  0  0  0  0  0  0  0
    5.2380    4.4890   33.5530 C   0  0  0  0  0  0  0  0  0  0  0  0
    3.8090    4.9210   33.4910 C   0  0  0  0  0  0  0  0  0  0  0  0
    2.7800    4.2690   34.1000 N   0  0  0  0  0  0  0  0  0  0  0  0
    1.8830    4.9540   35.0010 C   0  0  0  0  0  0  0  0  0  0  0  0
    3.1020    2.9110   34.3060 C   0  0  0  0  0  0  0  0  0  0  0  0
    4.1690    2.3810   33.4150 C   0  0  0  0  0  0  0  0  0  0  0  0
    5.8220    0.6180   27.3940 C   0  0  0  0  0  0  0  0  0  0  0  0
    5.7460   -0.5500   26.6640 C   0  0  0  0  0  0  0  0  0  0  0  0
    6.8070   -2.6850   23.2280 C   0  0  0  0  0  0  0  0  0  0  0  0
    7.7530   -3.2640   22.1850 C   0  0  0  0  0  0  0  0  0  0  0  0
  1  2  1  0
  2  3  2  0
  2  4  1  0
  4  5  1  0
  5  6  1  0
  6  7  1  0
  7  8  1  0
  8  9  2  0
  8 10  1  0
 10 11  1  0
 11 12  2  0
 12 13  1  0
 13 14  2  0
 14 15  1  0
 15 16  1  0
 16 17  1  0
 17 18  1  0
 18 19  1  0
 19 20  1  0
 20 21  1  0
 21 22  1  0
 22 23  1  0
 22 24  1  0
 19 25  1  0
 24 25  1  0
 14 26  1  0
 11 27  1  0
 26 27  2  0
  7 28  1  0
  4 29  1  0
 28 29  1  0
M  END
