piperidine-amides-27392-covalent
     RDKit          3D

 26 29  0  0  0  0  0  0  0  0999 V2000
    7.1190   -3.3210   19.2350 C   0  0  0  0  0  0  0  0  0  0  0  0
    6.4190   -4.1130   20.2440 C   0  0  0  0  0  0  0  0  0  0  0  0
    5.3250   -4.6380   19.9140 O   0  0  0  0  0  0  0  0  0  0  0  0
    7.0080   -4.3030   21.4850 N   0  0  0  0  0  0  0  0  0  0  0  0
    6.6900   -5.4550   22.2830 C   0  0  0  0  0  0  0  0  0  0  0  0
    5.9660   -4.9570   23.4950 C   0  0  0  0  0  0  0  0  0  0  0  0
    6.7000   -3.8220   24.1660 C   0  0  0  0  0  0  0  0  0  0  0  0
    5.9100   -3.3020   25.2820 C   0  0  0  0  0  0  0  0  0  0  0  0
    5.0950   -2.3790   25.0800 O   0  0  0  0  0  0  0  0  0  0  0  0
    6.0220   -3.8510   26.5440 N   0  0  0  0  0  0  0  0  0  0  0  0
    5.5590   -5.1680   26.7270 C   0  0  0  0  0  0  0  0  0  0  0  0
    5.8290   -5.5950   28.1240 C   0  0  0  0  0  0  0  0  0  0  0  0
    5.4460   -4.8340   29.1460 C   0  0  0  0  0  0  0  0  0  0  0  0
    4.1450   -4.3650   29.2760 C   0  0  0  0  0  0  0  0  0  0  0  0
    2.9740   -5.0270   28.9440 C   0  0  0  0  0  0  0  0  0  0  0  0
    1.9130   -4.2550   29.2100 N   0  0  0  0  0  0  0  0  0  0  0  0
    2.3670   -3.0980   29.7120 C   0  0  0  0  0  0  0  0  0  0  0  0
    1.6480   -2.0070   30.1280 C   0  0  0  0  0  0  0  0  0  0  0  0
    2.3070   -0.7700   30.6730 C   0  0  0  0  0  0  0  0  0  0  0  0
    3.8310   -0.9220   30.6890 C   0  0  0  0  0  0  0  0  0  0  0  0
    4.5480   -2.0780   30.2460 N   0  0  0  0  0  0  0  0  0  0  0  0
    3.7370   -3.1280   29.7690 C   0  0  0  0  0  0  0  0  0  0  0  0
    6.5240   -3.8200   28.7990 C   0  0  0  0  0  0  0  0  0  0  0  0
    6.3080   -3.0550   27.6670 C   0  0  0  0  0  0  0  0  0  0  0  0
    6.9500   -2.7030   23.1910 C   0  0  0  0  0  0  0  0  0  0  0  0
    7.8180   -3.2720   22.1030 C   0  0  0  0  0  0  0  0  0  0  0  0
  1  2  1  0
  2  3  2  0
  2  4  1  0
  4  5  1  0
  5  6  1  0
  6  7  1  0
  7  8  1  0
  8  9  2  0
  8 10  1  0
 10 11  1  0
 11 12  1  0
 12 13  1  0
 13 14  1  0
 14 15  2  0
 15 16  1  0
 16 17  1  0
 17 18  1  0
 18 19  2  0
 19 20  1  0
 20 21  2  0
 14 22  1  0
 17 22  2  0
 21 22  1  0
 13 23  1  0
 10 24  1  0
 23 24  1  0
  7 25  1  0
  4 26  1  0
 25 26  1  0
M  END
