piperidine-amides-24895-covalent
     RDKit          3D

 24 25  0  0  0  0  0  0  0  0999 V2000
    7.1670   -3.2710   19.2310 C   0  0  0  0  0  0  0  0  0  0  0  0
    6.4210   -4.0630   20.2140 C   0  0  0  0  0  0  0  0  0  0  0  0
    5.3340   -4.6030   19.9120 O   0  0  0  0  0  0  0  0  0  0  0  0
    6.9680   -4.2640   21.4800 N   0  0  0  0  0  0  0  0  0  0  0  0
    6.6390   -5.4520   22.2230 C   0  0  0  0  0  0  0  0  0  0  0  0
    5.7550   -4.9870   23.3800 C   0  0  0  0  0  0  0  0  0  0  0  0
    6.5500   -3.9570   24.1570 C   0  0  0  0  0  0  0  0  0  0  0  0
    5.7190   -3.4160   25.2250 C   0  0  0  0  0  0  0  0  0  0  0  0
    4.5800   -2.9890   24.9420 O   0  0  0  0  0  0  0  0  0  0  0  0
    6.2150   -3.4020   26.5260 N   0  0  0  0  0  0  0  0  0  0  0  0
    6.7440   -4.6410   27.0450 C   0  0  0  0  0  0  0  0  0  0  0  0
    5.6270   -2.3910   27.3870 C   0  0  2  0  0  0  0  0  0  0  0  0
    6.4130   -1.3540   27.3470 C   0  0  0  0  0  0  0  0  0  0  0  0
    6.5210   -1.4700   28.6670 C   0  0  1  0  0  0  0  0  0  0  0  0
    6.2720   -0.3270   29.4100 O   0  0  0  0  0  0  0  0  0  0  0  0
    6.1260   -0.4760   30.8010 C   0  0  0  0  0  0  0  0  0  0  0  0
    5.2600    0.5050   31.2300 C   0  0  0  0  0  0  0  0  0  0  0  0
    5.7300    1.5850   32.1830 C   0  0  0  0  0  0  0  0  0  0  0  0
    5.5180    0.2140   32.7830 C   0  0  0  0  0  0  0  0  0  0  0  0
    5.6340   -2.5970   28.7650 C   0  0  0  0  0  0  0  0  0  0  0  0
    4.4010   -2.4470   29.5400 C   0  0  0  0  0  0  0  0  0  0  0  0
    6.1920   -3.8580   28.9820 C   0  0  0  0  0  0  0  0  0  0  0  0
    6.8570   -2.7650   23.2600 C   0  0  0  0  0  0  0  0  0  0  0  0
    7.7180   -3.2170   22.1280 C   0  0  0  0  0  0  0  0  0  0  0  0
  1  2  1  0
  2  3  2  0
  2  4  1  0
  4  5  1  0
  5  6  1  0
  6  7  1  0
  7  8  1  0
  8  9  2  0
  8 10  1  0
 10 11  1  0
 12 10  1  6
 12 13  1  0
 13 14  1  0
 14 15  1  1
 15 16  1  0
 16 17  1  0
 17 18  1  0
 18 19  1  0
 12 20  1  0
 14 20  1  0
 20 21  1  0
 20 22  1  0
  7 23  1  0
  4 24  1  0
 23 24  1  0
M  END
