piperidine-amides-12144-covalent
     RDKit          3D

 25 27  0  0  0  0  0  0  0  0999 V2000
    7.0870   -3.2900   19.2750 C   0  0  0  0  0  0  0  0  0  0  0  0
    6.3640   -4.0820   20.2660 C   0  0  0  0  0  0  0  0  0  0  0  0
    5.3480   -4.6980   19.9420 O   0  0  0  0  0  0  0  0  0  0  0  0
    6.8630   -4.1830   21.6130 N   0  0  0  0  0  0  0  0  0  0  0  0
    6.6580   -5.4090   22.3540 C   0  0  0  0  0  0  0  0  0  0  0  0
    6.0360   -5.0940   23.6830 C   0  0  0  0  0  0  0  0  0  0  0  0
    6.1160   -3.5920   23.8420 C   0  0  0  0  0  0  0  0  0  0  0  0
    5.6230   -3.1560   25.1740 C   0  0  0  0  0  0  0  0  0  0  0  0
    4.4080   -3.0010   25.4080 O   0  0  0  0  0  0  0  0  0  0  0  0
    6.5510   -2.9080   26.2070 N   0  0  0  0  0  0  0  0  0  0  0  0
    6.1300   -3.1450   27.5690 C   0  0  0  0  0  0  0  0  0  0  0  0
    5.3890   -4.4550   27.6060 C   0  0  0  0  0  0  0  0  0  0  0  0
    4.9520   -4.9320   28.8210 C   0  0  0  0  0  0  0  0  0  0  0  0
    3.8430   -4.3290   29.5670 N   0  0  0  0  0  0  0  0  0  0  0  0
    3.8030   -5.1760   30.7160 C   0  0  0  0  0  0  0  0  0  0  0  0
    2.9420   -5.0950   31.7980 C   0  0  0  0  0  0  0  0  0  0  0  0
    3.1070   -6.0850   32.8520 C   0  0  0  0  0  0  0  0  0  0  0  0
    2.2310   -5.9640   33.8940 F   0  0  0  0  0  0  0  0  0  0  0  0
    4.0730   -7.0540   32.7750 C   0  0  0  0  0  0  0  0  0  0  0  0
    4.9030   -7.0910   31.6780 C   0  0  0  0  0  0  0  0  0  0  0  0
    4.7400   -6.1380   30.6680 C   0  0  0  0  0  0  0  0  0  0  0  0
    5.3990   -5.9670   29.5410 N   0  0  0  0  0  0  0  0  0  0  0  0
    6.4790   -6.8460   29.1850 C   0  0  0  0  0  0  0  0  0  0  0  0
    7.5020   -3.0760   23.5380 C   0  0  0  0  0  0  0  0  0  0  0  0
    7.6990   -3.1330   22.1620 C   0  0  0  0  0  0  0  0  0  0  0  0
  1  2  1  0
  2  3  2  0
  2  4  1  0
  4  5  1  0
  5  6  1  0
  6  7  1  0
  7  8  1  0
  8  9  2  0
  8 10  1  0
 10 11  1  0
 11 12  1  0
 12 13  1  0
 13 14  2  0
 14 15  1  0
 15 16  2  0
 16 17  1  0
 17 18  1  0
 17 19  2  0
 19 20  1  0
 15 21  1  0
 20 21  2  0
 13 22  1  0
 21 22  1  0
 22 23  1  0
  7 24  1  0
  4 25  1  0
 24 25  1  0
M  END
