piperidine-amides-14584-covalent
     RDKit          3D

 23 25  0  0  0  0  0  0  0  0999 V2000
    7.0140   -3.3380   19.3500 C   0  0  0  0  0  0  0  0  0  0  0  0
    6.3660   -4.1850   20.3570 C   0  0  0  0  0  0  0  0  0  0  0  0
    5.4000   -4.8750   19.9880 O   0  0  0  0  0  0  0  0  0  0  0  0
    6.8460   -4.2440   21.6960 N   0  0  0  0  0  0  0  0  0  0  0  0
    7.7070   -3.1990   22.2060 C   0  0  0  0  0  0  0  0  0  0  0  0
    7.3590   -2.8610   23.6230 C   0  0  0  0  0  0  0  0  0  0  0  0
    6.0700   -3.5820   23.9120 C   0  0  0  0  0  0  0  0  0  0  0  0
    5.6210   -3.3080   25.3180 C   0  0  0  0  0  0  0  0  0  0  0  0
    4.4200   -3.4540   25.5620 O   0  0  0  0  0  0  0  0  0  0  0  0
    6.5710   -2.8910   26.2370 N   0  0  0  0  0  0  0  0  0  0  0  0
    6.4680   -1.6620   26.9510 C   0  0  0  0  0  0  0  0  0  0  0  0
    5.9270   -0.4260   26.5580 C   0  0  0  0  0  0  0  0  0  0  0  0
    5.9070    0.6920   27.3890 C   0  0  0  0  0  0  0  0  0  0  0  0
    6.4140    0.7220   28.6970 C   0  0  0  0  0  0  0  0  0  0  0  0
    6.3610    1.8900   29.4780 N   0  0  0  0  0  0  0  0  0  0  0  0
    7.0240    3.1360   29.3480 C   0  0  0  0  0  0  0  0  0  0  0  0
    6.6360    3.9090   30.3410 N   0  0  0  0  0  0  0  0  0  0  0  0
    5.7620    3.1800   31.0690 N   0  0  0  0  0  0  0  0  0  0  0  0
    5.5750    1.9120   30.5470 C   0  0  0  0  0  0  0  0  0  0  0  0
    6.9850   -0.4390   29.2240 C   0  0  0  0  0  0  0  0  0  0  0  0
    7.0120   -1.6320   28.3520 C   0  0  0  0  0  0  0  0  0  0  0  0
    6.0940   -5.0370   23.7010 C   0  0  0  0  0  0  0  0  0  0  0  0
    6.6670   -5.4320   22.5130 C   0  0  0  0  0  0  0  0  0  0  0  0
  1  2  1  0
  2  3  2  0
  2  4  1  0
  4  5  1  0
  5  6  1  0
  6  7  1  0
  7  8  1  0
  8  9  2  0
  8 10  1  0
 10 11  1  0
 11 12  2  0
 12 13  1  0
 13 14  2  0
 14 15  1  0
 15 16  1  0
 16 17  2  0
 17 18  1  0
 15 19  1  0
 18 19  2  0
 14 20  1  0
 11 21  1  0
 20 21  2  0
  7 22  1  0
  4 23  1  0
 22 23  1  0
M  END
