piperidine-amides-19066-covalent
     RDKit          3D

 22 24  0  0  0  0  0  0  0  0999 V2000
    7.1240   -3.3520   19.4280 C   0  0  0  0  0  0  0  0  0  0  0  0
    6.4460   -4.2070   20.3740 C   0  0  0  0  0  0  0  0  0  0  0  0
    5.4180   -4.8540   19.9840 O   0  0  0  0  0  0  0  0  0  0  0  0
    6.9130   -4.3730   21.6940 N   0  0  0  0  0  0  0  0  0  0  0  0
    6.6810   -5.6590   22.3780 C   0  0  0  0  0  0  0  0  0  0  0  0
    5.7040   -5.1800   23.5170 C   0  0  0  0  0  0  0  0  0  0  0  0
    6.3970   -4.0290   24.2180 C   0  0  0  0  0  0  0  0  0  0  0  0
    5.5370   -3.5380   25.4680 C   0  0  0  0  0  0  0  0  0  0  0  0
    4.5650   -2.8910   25.1130 O   0  0  0  0  0  0  0  0  0  0  0  0
    6.1110   -3.9630   26.5070 N   0  0  0  0  0  0  0  0  0  0  0  0
    6.9660   -4.5860   27.3220 C   0  0  0  0  0  0  0  0  0  0  0  0
    7.0870   -5.7000   28.0530 C   0  0  0  0  0  0  0  0  0  0  0  0
    6.0780   -5.6530   28.9960 C   0  0  0  0  0  0  0  0  0  0  0  0
    5.8870   -6.8140   29.9200 C   0  0  0  0  0  0  0  0  0  0  0  0
    4.7180   -6.6330   30.9160 C   0  0  0  0  0  0  0  0  0  0  0  0
    4.0870   -5.4130   30.7310 C   0  0  0  0  0  0  0  0  0  0  0  0
    3.0200   -4.6850   31.2770 C   0  0  0  0  0  0  0  0  0  0  0  0
    4.2190   -4.2290   29.8480 C   0  0  0  0  0  0  0  0  0  0  0  0
    5.3720   -4.3270   28.8170 C   0  0  0  0  0  0  0  0  0  0  0  0
    5.7940   -3.4290   27.8410 C   0  0  0  0  0  0  0  0  0  0  0  0
    6.8160   -2.8760   23.3130 C   0  0  0  0  0  0  0  0  0  0  0  0
    7.6570   -3.3330   22.3580 C   0  0  0  0  0  0  0  0  0  0  0  0
  1  2  1  0
  2  3  2  0
  2  4  1  0
  4  5  1  0
  5  6  1  0
  6  7  1  0
  7  8  1  0
  8  9  2  0
  8 10  1  0
 10 11  1  0
 11 12  1  0
 12 13  1  0
 13 14  2  0
 14 15  1  0
 15 16  2  0
 16 17  1  0
 16 18  1  0
 13 19  1  0
 18 19  2  0
 10 20  1  0
 19 20  1  0
  7 21  1  0
  4 22  1  0
 21 22  1  0
M  END
