piperidine-amides-2419-covalent
     RDKit          3D

 27 29  0  0  0  0  0  0  0  0999 V2000
    7.1020   -3.3290   19.2940 C   0  0  0  0  0  0  0  0  0  0  0  0
    6.3590   -4.1280   20.2960 C   0  0  0  0  0  0  0  0  0  0  0  0
    5.3100   -4.6470   19.9260 O   0  0  0  0  0  0  0  0  0  0  0  0
    6.8970   -4.3070   21.5700 N   0  0  0  0  0  0  0  0  0  0  0  0
    7.6840   -3.2930   22.2230 C   0  0  0  0  0  0  0  0  0  0  0  0
    6.9090   -2.7560   23.3820 C   0  0  0  0  0  0  0  0  0  0  0  0
    6.4500   -3.9230   24.2510 C   0  0  0  0  0  0  0  0  0  0  0  0
    5.7290   -3.3390   25.3920 C   0  0  0  0  0  0  0  0  0  0  0  0
    4.5330   -3.0480   25.2720 O   0  0  0  0  0  0  0  0  0  0  0  0
    6.3810   -3.1130   26.6120 N   0  0  0  0  0  0  0  0  0  0  0  0
    6.3480   -1.7900   27.1930 C   0  0  0  0  0  0  0  0  0  0  0  0
    6.9940   -1.5050   28.5190 C   0  0  0  0  0  0  0  0  0  0  0  0
    7.0680   -0.3410   29.2290 C   0  0  0  0  0  0  0  0  0  0  0  0
    6.4750    0.7730   28.6970 C   0  0  0  0  0  0  0  0  0  0  0  0
    6.5630    1.9350   29.4330 O   0  0  0  0  0  0  0  0  0  0  0  0
    6.4760    1.7220   30.7930 C   0  0  0  0  0  0  0  0  0  0  0  0
    5.6050    2.8210   31.3620 C   0  0  0  0  0  0  0  0  0  0  0  0
    4.3390    2.1490   31.8280 C   0  0  0  0  0  0  0  0  0  0  0  0
    3.3070    3.0910   32.4460 C   0  0  0  0  0  0  0  0  0  0  0  0
    3.6090    4.5580   32.5420 C   0  0  0  0  0  0  0  0  0  0  0  0
    4.8870    5.1210   32.0520 C   0  0  0  0  0  0  0  0  0  0  0  0
    5.9590    4.2770   31.4320 C   0  0  0  0  0  0  0  0  0  0  0  0
    5.7590    0.7480   27.3690 C   0  0  0  0  0  0  0  0  0  0  0  0
    5.6690   -0.5260   26.5710 C   0  0  0  0  0  0  0  0  0  0  0  0
    5.0160   -0.5650   25.3550 C   0  0  0  0  0  0  0  0  0  0  0  0
    5.6410   -4.8970   23.4470 C   0  0  0  0  0  0  0  0  0  0  0  0
    6.5500   -5.4860   22.3640 C   0  0  0  0  0  0  0  0  0  0  0  0
  1  2  1  0
  2  3  2  0
  2  4  1  0
  4  5  1  0
  5  6  1  0
  6  7  1  0
  7  8  1  0
  8  9  2  0
  8 10  1  0
 10 11  1  0
 11 12  2  0
 12 13  1  0
 13 14  2  0
 14 15  1  0
 15 16  1  0
 16 17  1  0
 17 18  2  0
 18 19  1  0
 19 20  2  0
 20 21  1  0
 17 22  1  0
 21 22  2  0
 14 23  1  0
 11 24  1  0
 23 24  2  0
 24 25  1  0
  7 26  1  0
  4 27  1  0
 26 27  1  0
M  END
