piperidine-amides-24214-covalent
     RDKit          3D

 23 24  0  0  0  0  0  0  0  0999 V2000
    7.1160   -3.2690   19.1980 C   0  0  0  0  0  0  0  0  0  0  0  0
    6.3740   -4.0460   20.1990 C   0  0  0  0  0  0  0  0  0  0  0  0
    5.2880   -4.5780   19.8970 O   0  0  0  0  0  0  0  0  0  0  0  0
    6.9090   -4.2570   21.4740 N   0  0  0  0  0  0  0  0  0  0  0  0
    6.4480   -5.4070   22.2050 C   0  0  0  0  0  0  0  0  0  0  0  0
    5.5950   -4.8220   23.3280 C   0  0  0  0  0  0  0  0  0  0  0  0
    6.5050   -3.8850   24.0990 C   0  0  0  0  0  0  0  0  0  0  0  0
    5.7560   -3.3280   25.2370 C   0  0  0  0  0  0  0  0  0  0  0  0
    4.6040   -2.8860   25.0300 O   0  0  0  0  0  0  0  0  0  0  0  0
    6.3350   -3.3060   26.5210 N   0  0  0  0  0  0  0  0  0  0  0  0
    6.5790   -2.0100   27.0960 C   0  0  0  0  0  0  0  0  0  0  0  0
    5.9000   -4.3600   27.4130 C   0  0  1  0  0  0  0  0  0  0  0  0
    5.9490   -5.5600   26.7420 C   0  0  0  0  0  0  0  0  0  0  0  0
    6.6000   -4.5360   28.7310 C   0  0  0  0  0  0  0  0  0  0  0  0
    6.6370   -6.2910   29.0050 S   0  0  0  0  0  0  0  0  0  0  0  0
    5.1060   -6.9320   29.5950 C   0  0  0  0  0  0  0  0  0  0  0  0
    4.1390   -7.1310   28.7160 C   0  0  0  0  0  0  0  0  0  0  0  0
    2.7420   -7.6390   28.8230 C   0  0  0  0  0  0  0  0  0  0  0  0
    2.7630   -7.8800   30.3560 C   0  0  0  0  0  0  0  0  0  0  0  0
    3.7260   -7.7380   31.5590 C   0  0  0  0  0  0  0  0  0  0  0  0
    4.9220   -7.2090   30.8990 C   0  0  0  0  0  0  0  0  0  0  0  0
    6.9490   -2.7420   23.2330 C   0  0  0  0  0  0  0  0  0  0  0  0
    7.5960   -3.1820   22.1200 C   0  0  0  0  0  0  0  0  0  0  0  0
  1  2  1  0
  2  3  2  0
  2  4  1  0
  4  5  1  0
  5  6  1  0
  6  7  1  0
  7  8  1  0
  8  9  2  0
  8 10  1  0
 10 11  1  0
 10 12  1  0
 12 13  1  6
 12 14  1  0
 14 15  1  0
 15 16  1  0
 16 17  2  0
 17 18  1  0
 18 19  2  0
 19 20  1  0
 16 21  1  0
 20 21  2  0
  7 22  1  0
  4 23  1  0
 22 23  1  0
M  END
