piperidine-amides-24956-covalent
     RDKit          3D

 25 28  0  0  0  0  0  0  0  0999 V2000
    7.1180   -3.3330   19.3260 C   0  0  0  0  0  0  0  0  0  0  0  0
    6.3940   -4.1690   20.2880 C   0  0  0  0  0  0  0  0  0  0  0  0
    5.3390   -4.7470   19.9550 O   0  0  0  0  0  0  0  0  0  0  0  0
    6.9190   -4.3780   21.5680 N   0  0  0  0  0  0  0  0  0  0  0  0
    6.4450   -5.5120   22.3160 C   0  0  0  0  0  0  0  0  0  0  0  0
    5.5100   -4.9220   23.3690 C   0  0  0  0  0  0  0  0  0  0  0  0
    6.3850   -4.0480   24.2390 C   0  0  0  0  0  0  0  0  0  0  0  0
    5.6200   -3.5640   25.4070 C   0  0  0  0  0  0  0  0  0  0  0  0
    4.3760   -3.6490   25.3740 O   0  0  0  0  0  0  0  0  0  0  0  0
    6.2920   -2.9880   26.5120 N   0  0  0  0  0  0  0  0  0  0  0  0
    6.2750   -3.6170   27.8170 C   0  0  0  0  0  0  0  0  0  0  0  0
    5.0150   -4.4240   28.0290 C   0  0  0  0  0  0  0  0  0  0  0  0
    3.6840   -4.2440   27.8510 C   0  0  0  0  0  0  0  0  0  0  0  0
    3.0400   -5.3630   28.2410 C   0  0  0  0  0  0  0  0  0  0  0  0
    1.7450   -5.7360   28.2860 C   0  0  0  0  0  0  0  0  0  0  0  0
    1.3270   -6.9610   28.7370 C   0  0  0  0  0  0  0  0  0  0  0  0
    2.0730   -8.2050   29.2870 C   0  0  0  0  0  0  0  0  0  0  0  0
    3.5200   -7.6510   29.1810 C   0  0  0  0  0  0  0  0  0  0  0  0
    3.8800   -6.2930   28.6740 C   0  0  0  0  0  0  0  0  0  0  0  0
    5.1160   -5.7860   28.5720 N   0  0  0  0  0  0  0  0  0  0  0  0
    6.7770   -1.6320   26.6350 C   0  0  0  0  0  0  0  0  0  0  0  0
    6.0280   -0.6550   27.0900 C   0  0  0  0  0  0  0  0  0  0  0  0
    6.6900   -1.0150   28.1310 C   0  0  0  0  0  0  0  0  0  0  0  0
    6.9230   -2.8510   23.4740 C   0  0  0  0  0  0  0  0  0  0  0  0
    7.6290   -3.3110   22.2240 C   0  0  0  0  0  0  0  0  0  0  0  0
  1  2  1  0
  2  3  2  0
  2  4  1  0
  4  5  1  0
  5  6  1  0
  6  7  1  0
  7  8  1  0
  8  9  2  0
  8 10  1  0
 10 11  1  0
 11 12  1  0
 12 13  2  0
 13 14  1  0
 14 15  2  0
 15 16  1  0
 16 17  2  0
 17 18  1  0
 14 19  1  0
 18 19  2  0
 12 20  1  0
 19 20  1  0
 10 21  1  0
 21 22  1  0
 21 23  1  0
 22 23  1  0
  7 24  1  0
  4 25  1  0
 24 25  1  0
M  END
