piperidine-amides-27711-covalent
     RDKit          3D

 26 28  0  0  0  0  0  0  0  0999 V2000
    7.0370   -3.3340   19.3440 C   0  0  0  0  0  0  0  0  0  0  0  0
    6.3720   -4.1870   20.3550 C   0  0  0  0  0  0  0  0  0  0  0  0
    5.3670   -4.8160   19.9720 O   0  0  0  0  0  0  0  0  0  0  0  0
    6.8860   -4.3090   21.6610 N   0  0  0  0  0  0  0  0  0  0  0  0
    6.5240   -5.4240   22.4620 C   0  0  0  0  0  0  0  0  0  0  0  0
    5.9110   -5.0700   23.7550 C   0  0  0  0  0  0  0  0  0  0  0  0
    6.3250   -3.7800   24.3750 C   0  0  0  0  0  0  0  0  0  0  0  0
    5.3060   -3.3320   25.3890 C   0  0  0  0  0  0  0  0  0  0  0  0
    4.1370   -3.2090   24.9830 O   0  0  0  0  0  0  0  0  0  0  0  0
    5.6170   -3.0360   26.7580 N   0  0  0  0  0  0  0  0  0  0  0  0
    6.1910   -1.6400   26.9620 C   0  0  0  0  0  0  0  0  0  0  0  0
    6.4420   -0.5820   28.1460 C   0  0  0  0  0  0  0  0  0  0  0  0
    5.8080   -1.5600   28.6210 N   0  0  0  0  0  0  0  0  0  0  0  0
    5.8090   -2.0030   27.3220 C   0  0  0  0  0  0  0  0  0  0  0  0
    6.5750   -0.7110   27.2180 C   0  0  0  0  0  0  0  0  0  0  0  0
    6.6550   -1.0880   25.8630 C   0  0  0  0  0  0  0  0  0  0  0  0
    6.1930   -0.8240   28.7480 C   0  0  0  0  0  0  0  0  0  0  0  0
    6.5660    0.1480   29.6590 C   0  0  0  0  0  0  0  0  0  0  0  0
    5.4100   -1.9980   29.2330 N   0  0  0  0  0  0  0  0  0  0  0  0
    5.1950   -2.7330   28.1790 N   0  0  0  0  0  0  0  0  0  0  0  0
    4.4830   -3.9980   27.8820 C   0  0  0  0  0  0  0  0  0  0  0  0
    5.8640   -4.1590   27.6880 C   0  0  0  0  0  0  0  0  0  0  0  0
    6.8410   -3.9070   28.7590 C   0  0  0  0  0  0  0  0  0  0  0  0
    5.9320   -5.3980   27.0490 C   0  0  0  0  0  0  0  0  0  0  0  0
    6.6460   -2.7290   23.2990 C   0  0  0  0  0  0  0  0  0  0  0  0
    7.5540   -3.2200   22.3330 C   0  0  0  0  0  0  0  0  0  0  0  0
  1  2  1  0
  2  3  2  0
  2  4  1  0
  4  5  1  0
  5  6  1  0
  6  7  1  0
  7  8  1  0
  8  9  2  0
  8 10  1  0
 10 11  1  0
 11 12  2  0
 12 13  1  0
 13 14  2  0
 14 15  1  0
 11 16  1  0
 15 16  2  0
 15 17  1  0
 17 18  1  0
 17 19  2  0
 14 20  1  0
 19 20  1  0
 20 21  1  0
 10 22  1  0
 22 23  1  0
 22 24  1  0
  7 25  1  0
  4 26  1  0
 25 26  1  0
M  END
