piperidine-amides-9279-covalent
     RDKit          3D

 19 20  0  0  0  0  0  0  0  0999 V2000
    7.0560   -3.3310   19.3020 C   0  0  0  0  0  0  0  0  0  0  0  0
    6.3560   -4.1400   20.2990 C   0  0  0  0  0  0  0  0  0  0  0  0
    5.3530   -4.7870   19.9650 O   0  0  0  0  0  0  0  0  0  0  0  0
    6.8310   -4.2320   21.6130 N   0  0  0  0  0  0  0  0  0  0  0  0
    7.6410   -3.2120   22.2350 C   0  0  0  0  0  0  0  0  0  0  0  0
    6.8230   -2.7070   23.3910 C   0  0  0  0  0  0  0  0  0  0  0  0
    6.4780   -3.8280   24.3190 C   0  0  0  0  0  0  0  0  0  0  0  0
    5.7080   -3.3770   25.5190 C   0  0  0  0  0  0  0  0  0  0  0  0
    4.4340   -3.3360   25.5140 O   0  0  0  0  0  0  0  0  0  0  0  0
    6.3330   -2.9810   26.7260 N   0  0  0  0  0  0  0  0  0  0  0  0
    6.0120   -1.7010   27.4240 C   0  0  0  0  0  0  0  0  0  0  0  0
    6.0140   -0.5930   26.4160 C   0  0  0  0  0  0  0  0  0  0  0  0
    5.7040    0.7920   26.8640 C   0  0  0  0  0  0  0  0  0  0  0  0
    6.1470    1.0850   28.2610 C   0  0  0  0  0  0  0  0  0  0  0  0
    6.5500    0.5050   29.5730 C   0  0  0  0  0  0  0  0  0  0  0  0
    6.5490   -0.9620   29.6350 C   0  0  0  0  0  0  0  0  0  0  0  0
    7.1150   -1.4930   28.5040 C   0  0  0  0  0  0  0  0  0  0  0  0
    5.7320   -4.9360   23.6120 C   0  0  0  0  0  0  0  0  0  0  0  0
    6.5270   -5.4010   22.4100 C   0  0  0  0  0  0  0  0  0  0  0  0
  1  2  1  0
  2  3  2  0
  2  4  1  0
  4  5  1  0
  5  6  1  0
  6  7  1  0
  7  8  1  0
  8  9  2  0
  8 10  1  0
 10 11  1  0
 11 12  1  0
 12 13  1  0
 13 14  1  0
 14 15  2  0
 15 16  1  0
 11 17  1  0
 16 17  1  0
  7 18  1  0
  4 19  1  0
 18 19  1  0
M  END
