piperidine-amides-23640-covalent
     RDKit          3D

 24 26  0  0  0  0  0  0  0  0999 V2000
    7.0500   -3.3590   19.3540 C   0  0  0  0  0  0  0  0  0  0  0  0
    6.4190   -4.2280   20.3580 C   0  0  0  0  0  0  0  0  0  0  0  0
    5.3800   -4.8290   19.9880 O   0  0  0  0  0  0  0  0  0  0  0  0
    6.9910   -4.4290   21.6490 N   0  0  0  0  0  0  0  0  0  0  0  0
    6.5150   -5.4990   22.4380 C   0  0  0  0  0  0  0  0  0  0  0  0
    6.1010   -5.1180   23.7910 C   0  0  0  0  0  0  0  0  0  0  0  0
    6.3940   -3.7360   24.2740 C   0  0  0  0  0  0  0  0  0  0  0  0
    5.2540   -3.2400   25.1360 C   0  0  0  0  0  0  0  0  0  0  0  0
    4.1300   -3.1340   24.6300 O   0  0  0  0  0  0  0  0  0  0  0  0
    5.3920   -2.8990   26.4990 N   0  0  0  0  0  0  0  0  0  0  0  0
    6.5390   -3.0690   27.1880 C   0  0  0  0  0  0  0  0  0  0  0  0
    6.4990   -4.1230   28.1910 C   0  0  0  0  0  0  0  0  0  0  0  0
    5.4230   -4.2790   28.9620 N   0  0  0  0  0  0  0  0  0  0  0  0
    5.2010   -5.3910   29.8110 C   0  0  0  0  0  0  0  0  0  0  0  0
    4.2010   -5.2190   30.7420 C   0  0  0  0  0  0  0  0  0  0  0  0
    3.9840   -6.4490   31.6870 C   0  0  0  0  0  0  0  0  0  0  0  0
    4.8160   -7.7200   31.5580 C   0  0  0  0  0  0  0  0  0  0  0  0
    5.8800   -7.7440   30.4490 C   0  0  0  0  0  0  0  0  0  0  0  0
    6.6550   -8.8910   30.2860 O   0  0  0  0  0  0  0  0  0  0  0  0
    6.0200   -6.5600   29.6250 C   0  0  0  0  0  0  0  0  0  0  0  0
    4.4090   -3.4610   28.7570 C   0  0  0  0  0  0  0  0  0  0  0  0
    4.2180   -3.0160   27.3000 C   0  0  0  0  0  0  0  0  0  0  0  0
    6.7160   -2.7710   23.1630 C   0  0  0  0  0  0  0  0  0  0  0  0
    7.6800   -3.3800   22.3620 C   0  0  0  0  0  0  0  0  0  0  0  0
  1  2  1  0
  2  3  2  0
  2  4  1  0
  4  5  1  0
  5  6  1  0
  6  7  1  0
  7  8  1  0
  8  9  2  0
  8 10  1  0
 10 11  1  0
 11 12  1  0
 12 13  1  0
 13 14  1  0
 14 15  2  0
 15 16  1  0
 16 17  2  0
 17 18  1  0
 18 19  1  0
 14 20  1  0
 18 20  2  0
 13 21  1  0
 10 22  1  0
 21 22  1  0
  7 23  1  0
  4 24  1  0
 23 24  1  0
M  END
