piperidine-amides-31363-covalent
     RDKit          3D

 23 25  0  0  0  0  0  0  0  0999 V2000
    7.0030   -3.4120   19.4100 C   0  0  0  0  0  0  0  0  0  0  0  0
    6.3810   -4.2290   20.4340 C   0  0  0  0  0  0  0  0  0  0  0  0
    5.4400   -4.9870   20.0240 O   0  0  0  0  0  0  0  0  0  0  0  0
    6.7760   -4.2610   21.8080 N   0  0  0  0  0  0  0  0  0  0  0  0
    6.7440   -5.6090   22.4390 C   0  0  0  0  0  0  0  0  0  0  0  0
    6.1990   -5.3270   23.9020 C   0  0  0  0  0  0  0  0  0  0  0  0
    6.2160   -3.8330   24.0770 C   0  0  0  0  0  0  0  0  0  0  0  0
    5.2060   -3.2600   25.1960 C   0  0  0  0  0  0  0  0  0  0  0  0
    4.1780   -2.9750   24.6110 O   0  0  0  0  0  0  0  0  0  0  0  0
    5.6140   -3.2020   26.4230 N   0  0  0  0  0  0  0  0  0  0  0  0
    5.7720   -2.8180   27.6970 C   0  0  0  0  0  0  0  0  0  0  0  0
    5.6650   -3.5980   28.8040 C   0  0  0  0  0  0  0  0  0  0  0  0
    5.3500   -4.9170   28.3710 O   0  0  0  0  0  0  0  0  0  0  0  0
    6.4740   -5.5280   27.8950 C   0  0  0  0  0  0  0  0  0  0  0  0
    5.9690   -6.2510   29.0350 C   0  0  0  0  0  0  0  0  0  0  0  0
    4.6770   -5.6340   29.5000 C   0  0  0  0  0  0  0  0  0  0  0  0
    3.6070   -6.2800   30.9760 Br  0  0  0  0  0  0  0  0  0  0  0  0
    4.3690   -4.5250   28.6900 C   0  0  0  0  0  0  0  0  0  0  0  0
    3.1730   -4.0740   29.2360 F   0  0  0  0  0  0  0  0  0  0  0  0
    4.8710   -3.7740   27.5620 C   0  0  0  0  0  0  0  0  0  0  0  0
    6.2210   -4.3550   26.9840 C   0  0  0  0  0  0  0  0  0  0  0  0
    7.5430   -3.2450   23.7390 C   0  0  0  0  0  0  0  0  0  0  0  0
    7.6260   -3.2110   22.3560 C   0  0  0  0  0  0  0  0  0  0  0  0
  1  2  1  0
  2  3  2  0
  2  4  1  0
  4  5  1  0
  5  6  1  0
  6  7  1  0
  7  8  1  0
  8  9  2  0
  8 10  1  0
 10 11  1  0
 11 12  1  0
 12 13  1  0
 13 14  1  0
 14 15  2  0
 15 16  1  0
 16 17  1  0
 16 18  2  0
 18 19  1  0
 18 20  1  0
 10 21  1  0
 14 21  1  0
 20 21  2  0
  7 22  1  0
  4 23  1  0
 22 23  1  0
M  END
