piperidine-amides-33510-covalent
     RDKit          3D

 29 32  0  0  0  0  0  0  0  0999 V2000
    7.1250   -3.3340   19.2800 C   0  0  0  0  0  0  0  0  0  0  0  0
    6.4490   -4.1680   20.2870 C   0  0  0  0  0  0  0  0  0  0  0  0
    5.3750   -4.7230   19.9510 O   0  0  0  0  0  0  0  0  0  0  0  0
    7.0330   -4.3790   21.5570 N   0  0  0  0  0  0  0  0  0  0  0  0
    6.4790   -5.4130   22.3470 C   0  0  0  0  0  0  0  0  0  0  0  0
    5.8460   -4.9390   23.5790 C   0  0  0  0  0  0  0  0  0  0  0  0
    6.4540   -3.7440   24.2240 C   0  0  0  0  0  0  0  0  0  0  0  0
    5.6000   -3.2630   25.3460 C   0  0  0  0  0  0  0  0  0  0  0  0
    4.3990   -3.0200   25.1270 O   0  0  0  0  0  0  0  0  0  0  0  0
    6.1050   -3.0670   26.6380 N   0  0  0  0  0  0  0  0  0  0  0  0
    6.2370   -4.1240   27.5840 C   0  0  0  0  0  0  0  0  0  0  0  0
    5.1220   -4.6200   28.3610 C   0  0  0  0  0  0  0  0  0  0  0  0
    5.2190   -6.1200   28.4180 C   0  0  0  0  0  0  0  0  0  0  0  0
    4.3320   -6.9140   29.0660 C   0  0  0  0  0  0  0  0  0  0  0  0
    3.1380   -6.2610   29.8000 C   0  0  0  0  0  0  0  0  0  0  0  0
    1.9700   -7.2620   30.6470 Cl  0  0  0  0  0  0  0  0  0  0  0  0
    3.0500   -4.7340   29.7380 C   0  0  0  0  0  0  0  0  0  0  0  0
    4.0760   -3.8340   28.9880 C   0  0  0  0  0  0  0  0  0  0  0  0
    6.2490   -1.8070   27.2840 C   0  0  0  0  0  0  0  0  0  0  0  0
    6.9840   -1.6970   28.6260 C   0  0  0  0  0  0  0  0  0  0  0  0
    7.1580   -0.3600   29.3830 C   0  0  0  0  0  0  0  0  0  0  0  0
    6.5350    0.7620   28.6430 C   0  0  0  0  0  0  0  0  0  0  0  0
    6.3810    2.0590   28.8000 C   0  0  0  0  0  0  0  0  0  0  0  0
    5.8860    2.8680   28.1850 N   0  0  0  0  0  0  0  0  0  0  0  0
    5.4740    2.0120   27.1630 N   0  0  0  0  0  0  0  0  0  0  0  0
    5.9190    0.6240   27.4960 C   0  0  0  0  0  0  0  0  0  0  0  0
    5.7270   -0.6440   26.7300 C   0  0  0  0  0  0  0  0  0  0  0  0
    6.7940   -2.6680   23.2530 C   0  0  0  0  0  0  0  0  0  0  0  0
    7.6660   -3.2580   22.1750 C   0  0  0  0  0  0  0  0  0  0  0  0
  1  2  1  0
  2  3  2  0
  2  4  1  0
  4  5  1  0
  5  6  1  0
  6  7  1  0
  7  8  1  0
  8  9  2  0
  8 10  1  0
 10 11  1  0
 11 12  1  0
 12 13  2  0
 13 14  1  0
 14 15  2  0
 15 16  1  0
 15 17  1  0
 12 18  1  0
 17 18  2  0
 10 19  1  0
 19 20  2  0
 20 21  1  0
 21 22  2  0
 22 23  1  0
 23 24  2  0
 24 25  1  0
 22 26  1  0
 25 26  1  0
 19 27  1  0
 26 27  2  0
  7 28  1  0
  4 29  1  0
 28 29  1  0
M  END
