piperidine-amides-4573-covalent
     RDKit          3D

 24 26  0  0  0  0  0  0  0  0999 V2000
    7.0520   -3.3410   19.3500 C   0  0  0  0  0  0  0  0  0  0  0  0
    6.4030   -4.1980   20.3700 C   0  0  0  0  0  0  0  0  0  0  0  0
    5.4050   -4.8470   19.9860 O   0  0  0  0  0  0  0  0  0  0  0  0
    6.9140   -4.3000   21.6800 N   0  0  0  0  0  0  0  0  0  0  0  0
    7.7060   -3.2520   22.2480 C   0  0  0  0  0  0  0  0  0  0  0  0
    7.2990   -2.8940   23.6010 C   0  0  0  0  0  0  0  0  0  0  0  0
    6.0200   -3.5220   23.9740 C   0  0  0  0  0  0  0  0  0  0  0  0
    5.5930   -3.1520   25.3520 C   0  0  0  0  0  0  0  0  0  0  0  0
    4.3710   -3.1650   25.5840 O   0  0  0  0  0  0  0  0  0  0  0  0
    6.4980   -2.7970   26.3710 N   0  0  0  0  0  0  0  0  0  0  0  0
    6.7070   -1.4120   26.8830 C   0  0  1  0  0  0  0  0  0  0  0  0
    6.1920   -0.3040   26.0320 C   0  0  0  0  0  0  0  0  0  0  0  0
    5.9790    1.0040   26.7030 C   0  0  0  0  0  0  0  0  0  0  0  0
    6.1150    1.0990   28.0900 C   0  0  0  0  0  0  0  0  0  0  0  0
    5.9080   -0.0500   28.7930 C   0  0  0  0  0  0  0  0  0  0  0  0
    6.2080   -1.1790   28.1850 C   0  0  0  0  0  0  0  0  0  0  0  0
    5.7520   -1.6490   29.1770 C   0  0  0  0  0  0  0  0  0  0  0  0
    5.4060   -2.5580   29.8910 C   0  0  0  0  0  0  0  0  0  0  0  0
    4.9820   -1.5620   30.7620 C   0  0  0  0  0  0  0  0  0  0  0  0
    4.3750   -1.7220   31.8270 O   0  0  0  0  0  0  0  0  0  0  0  0
    5.3230   -0.1680   30.2370 N   0  0  0  0  0  0  0  0  0  0  0  0
    4.7340    1.0530   30.8020 C   0  0  0  0  0  0  0  0  0  0  0  0
    5.9940   -5.0040   23.7810 C   0  0  0  0  0  0  0  0  0  0  0  0
    6.6530   -5.4680   22.5000 C   0  0  0  0  0  0  0  0  0  0  0  0
  1  2  1  0
  2  3  2  0
  2  4  1  0
  4  5  1  0
  5  6  1  0
  6  7  1  0
  7  8  1  0
  8  9  2  0
  8 10  1  0
 11 10  1  6
 11 12  1  0
 12 13  1  0
 13 14  1  0
 14 15  1  0
 11 16  1  0
 15 16  2  0
 16 17  1  0
 17 18  2  0
 18 19  1  0
 19 20  2  0
 15 21  1  0
 19 21  1  0
 21 22  1  0
  7 23  1  0
  4 24  1  0
 23 24  1  0
M  END
