piperidine-amides-34912-covalent
     RDKit          3D

 32 34  0  0  0  0  0  0  0  0999 V2000
    7.0660   -3.3420   19.3560 C   0  0  0  0  0  0  0  0  0  0  0  0
    6.3840   -4.1610   20.3880 C   0  0  0  0  0  0  0  0  0  0  0  0
    5.4250   -4.8340   19.9950 O   0  0  0  0  0  0  0  0  0  0  0  0
    6.8570   -4.1850   21.7160 N   0  0  0  0  0  0  0  0  0  0  0  0
    7.7370   -3.1550   22.2410 C   0  0  0  0  0  0  0  0  0  0  0  0
    7.4870   -2.9760   23.7160 C   0  0  0  0  0  0  0  0  0  0  0  0
    6.1210   -3.5800   24.0060 C   0  0  0  0  0  0  0  0  0  0  0  0
    5.5650   -3.1820   25.3460 C   0  0  0  0  0  0  0  0  0  0  0  0
    4.4030   -2.7520   25.3400 O   0  0  0  0  0  0  0  0  0  0  0  0
    6.2270   -3.2390   26.6130 N   0  0  0  0  0  0  0  0  0  0  0  0
    6.3680   -1.9580   27.3090 C   0  0  0  0  0  0  0  0  0  0  0  0
    5.8660   -0.7240   26.5570 C   0  0  0  0  0  0  0  0  0  0  0  0
    5.9100    0.5320   27.0930 C   0  0  0  0  0  0  0  0  0  0  0  0
    6.4320    0.5510   28.3200 C   0  0  0  0  0  0  0  0  0  0  0  0
    6.7300    1.4250   29.3330 C   0  0  0  0  0  0  0  0  0  0  0  0
    6.5040    2.6240   28.8450 N   0  0  0  0  0  0  0  0  0  0  0  0
    6.9630   -0.4330   29.2060 C   0  0  0  0  0  0  0  0  0  0  0  0
    6.8610   -1.6840   28.5400 N   0  0  0  0  0  0  0  0  0  0  0  0
    5.7530   -4.2140   27.5650 C   0  0  2  0  0  0  0  0  0  0  0  0
    6.5380   -5.1710   28.4300 C   0  0  0  0  0  0  0  0  0  0  0  0
    4.7960   -5.2520   26.9900 C   0  0  0  0  0  0  0  0  0  0  0  0
    5.1460   -6.0380   25.7850 C   0  0  0  0  0  0  0  0  0  0  0  0
    4.2100   -7.0680   25.2100 C   0  0  0  0  0  0  0  0  0  0  0  0
    2.9230   -7.2970   25.8650 C   0  0  0  0  0  0  0  0  0  0  0  0
    2.6450   -6.4550   27.0860 C   0  0  0  0  0  0  0  0  0  0  0  0
    3.5450   -5.5060   27.5830 C   0  0  0  0  0  0  0  0  0  0  0  0
    3.0560   -4.7750   28.8180 C   0  0  0  0  0  0  0  0  0  0  0  0
    1.7400   -4.9620   29.1580 F   0  0  0  0  0  0  0  0  0  0  0  0
    3.1460   -3.3840   28.6730 F   0  0  0  0  0  0  0  0  0  0  0  0
    3.7650   -5.2180   29.9140 F   0  0  0  0  0  0  0  0  0  0  0  0
    6.0770   -5.1030   23.8180 C   0  0  0  0  0  0  0  0  0  0  0  0
    6.6910   -5.4210   22.4520 C   0  0  0  0  0  0  0  0  0  0  0  0
  1  2  1  0
  2  3  2  0
  2  4  1  0
  4  5  1  0
  5  6  1  0
  6  7  1  0
  7  8  1  0
  8  9  2  0
  8 10  1  0
 10 11  1  0
 11 12  2  0
 12 13  1  0
 13 14  2  0
 14 15  1  0
 15 16  3  0
 14 17  1  0
 11 18  1  0
 17 18  2  0
 10 19  1  0
 19 20  1  6
 19 21  1  0
 21 22  2  0
 22 23  1  0
 23 24  2  0
 24 25  1  0
 21 26  1  0
 25 26  2  0
 26 27  1  0
 27 28  1  0
 27 29  1  0
 27 30  1  0
  7 31  1  0
  4 32  1  0
 31 32  1  0
M  END
