piperidine-amides-29322-covalent
     RDKit          3D

 26 27  0  0  0  0  0  0  0  0999 V2000
    7.0800   -3.3050   19.3050 C   0  0  0  0  0  0  0  0  0  0  0  0
    6.3260   -4.0600   20.3030 C   0  0  0  0  0  0  0  0  0  0  0  0
    5.2960   -4.6420   19.9230 O   0  0  0  0  0  0  0  0  0  0  0  0
    6.7880   -4.1600   21.6460 N   0  0  0  0  0  0  0  0  0  0  0  0
    6.5870   -5.4140   22.3240 C   0  0  0  0  0  0  0  0  0  0  0  0
    6.2780   -5.1940   23.7840 C   0  0  0  0  0  0  0  0  0  0  0  0
    6.0810   -3.7110   23.9810 C   0  0  0  0  0  0  0  0  0  0  0  0
    5.5080   -3.3830   25.3360 C   0  0  0  0  0  0  0  0  0  0  0  0
    4.2840   -3.2930   25.3570 O   0  0  0  0  0  0  0  0  0  0  0  0
    6.3160   -3.1900   26.4610 N   0  0  0  0  0  0  0  0  0  0  0  0
    6.0920   -3.9590   27.6630 C   0  0  0  0  0  0  0  0  0  0  0  0
    5.9290   -5.3590   27.5290 C   0  0  0  0  0  0  0  0  0  0  0  0
    4.9190   -5.9600   28.2520 C   0  0  0  0  0  0  0  0  0  0  0  0
    3.7330   -5.9730   27.5480 O   0  0  0  0  0  0  0  0  0  0  0  0
    2.4340   -6.1570   27.7990 C   0  0  0  0  0  0  0  0  0  0  0  0
    1.8640   -6.7510   26.6980 F   0  0  0  0  0  0  0  0  0  0  0  0
    2.2590   -6.8300   28.9610 F   0  0  0  0  0  0  0  0  0  0  0  0
    6.6420   -1.6880   26.6430 C   0  0  0  0  0  0  0  0  0  0  0  0
    6.2590   -1.3650   28.1070 C   0  0  0  0  0  0  0  0  0  0  0  0
    7.3980   -1.1700   29.0500 C   0  0  0  0  0  0  0  0  0  0  0  0
    6.9810   -0.8510   30.4520 C   0  0  0  0  0  0  0  0  0  0  0  0
    5.4640   -0.7760   30.7100 C   0  0  0  0  0  0  0  0  0  0  0  0
    4.5360   -0.9850   29.7250 C   0  0  0  0  0  0  0  0  0  0  0  0
    4.9070   -1.2770   28.4340 C   0  0  0  0  0  0  0  0  0  0  0  0
    7.3200   -2.9500   23.6820 C   0  0  0  0  0  0  0  0  0  0  0  0
    7.6450   -3.1430   22.2270 C   0  0  0  0  0  0  0  0  0  0  0  0
  1  2  1  0
  2  3  2  0
  2  4  1  0
  4  5  1  0
  5  6  1  0
  6  7  1  0
  7  8  1  0
  8  9  2  0
  8 10  1  0
 10 11  1  0
 11 12  1  0
 12 13  1  0
 13 14  1  0
 14 15  1  0
 15 16  1  0
 15 17  1  0
 10 18  1  0
 18 19  1  0
 19 20  2  0
 20 21  1  0
 21 22  2  0
 22 23  1  0
 19 24  1  0
 23 24  2  0
  7 25  1  0
  4 26  1  0
 25 26  1  0
M  END
