piperidine-amides-18895-covalent
     RDKit          3D

 21 21  0  0  0  0  0  0  0  0999 V2000
    7.1020   -3.3370   19.2420 C   0  0  0  0  0  0  0  0  0  0  0  0
    6.3800   -4.0600   20.2620 C   0  0  0  0  0  0  0  0  0  0  0  0
    5.2840   -4.5970   19.9120 O   0  0  0  0  0  0  0  0  0  0  0  0
    6.8610   -4.2530   21.5750 N   0  0  0  0  0  0  0  0  0  0  0  0
    7.6340   -3.1660   22.2190 C   0  0  0  0  0  0  0  0  0  0  0  0
    6.5860   -2.6790   23.2890 C   0  0  0  0  0  0  0  0  0  0  0  0
    6.2610   -3.8920   24.1450 C   0  0  0  0  0  0  0  0  0  0  0  0
    5.4330   -3.4250   25.4220 C   0  0  0  0  0  0  0  0  0  0  0  0
    4.2850   -3.8290   25.3230 O   0  0  0  0  0  0  0  0  0  0  0  0
    6.1360   -2.7420   26.2310 N   0  0  0  0  0  0  0  0  0  0  0  0
    6.7580   -1.6510   26.7520 C   0  0  0  0  0  0  0  0  0  0  0  0
    7.0040   -1.1740   28.0160 C   0  0  0  0  0  0  0  0  0  0  0  0
    6.1120   -3.6270   27.4030 C   0  0  0  0  0  0  0  0  0  0  0  0
    5.7880   -5.0770   27.2510 C   0  0  2  0  0  0  0  0  0  0  0  0
    4.9570   -5.2290   28.5360 C   0  0  0  0  0  0  0  0  0  0  0  0
    6.3880   -5.1210   28.6800 C   0  0  0  0  0  0  0  0  0  0  0  0
    6.5260   -3.9700   29.1450 O   0  0  0  0  0  0  0  0  0  0  0  0
    6.7400   -6.3350   29.3210 O   0  0  0  0  0  0  0  0  0  0  0  0
    5.9040   -7.4160   29.5380 C   0  0  0  0  0  0  0  0  0  0  0  0
    5.7620   -5.0780   23.4950 C   0  0  0  0  0  0  0  0  0  0  0  0
    6.7120   -5.4340   22.3180 C   0  0  0  0  0  0  0  0  0  0  0  0
  1  2  1  0
  2  3  2  0
  2  4  1  0
  4  5  1  0
  5  6  1  0
  6  7  1  0
  7  8  1  0
  8  9  2  0
  8 10  1  0
 10 11  1  0
 11 12  1  0
 10 13  1  0
 13 14  1  0
 14 15  1  1
 14 16  1  0
 16 17  2  0
 16 18  1  0
 18 19  1  0
  7 20  1  0
  4 21  1  0
 20 21  1  0
M  END
