piperidine-amides-19867-covalent
     RDKit          3D

 22 24  0  0  0  0  0  0  0  0999 V2000
    7.0350   -3.3390   19.3540 C   0  0  0  0  0  0  0  0  0  0  0  0
    6.3790   -4.2160   20.3560 C   0  0  0  0  0  0  0  0  0  0  0  0
    5.3880   -4.8460   19.9800 O   0  0  0  0  0  0  0  0  0  0  0  0
    6.9080   -4.3330   21.6510 N   0  0  0  0  0  0  0  0  0  0  0  0
    6.6620   -5.4810   22.4730 C   0  0  0  0  0  0  0  0  0  0  0  0
    5.8620   -5.0700   23.6870 C   0  0  0  0  0  0  0  0  0  0  0  0
    6.3770   -3.7600   24.3090 C   0  0  0  0  0  0  0  0  0  0  0  0
    5.2740   -3.2350   25.1560 C   0  0  0  0  0  0  0  0  0  0  0  0
    4.2120   -2.9500   24.6040 O   0  0  0  0  0  0  0  0  0  0  0  0
    5.3520   -3.0450   26.5590 N   0  0  0  0  0  0  0  0  0  0  0  0
    6.5810   -2.7830   27.1550 C   0  0  0  0  0  0  0  0  0  0  0  0
    6.5410   -3.6690   28.4090 C   0  0  0  0  0  0  0  0  0  0  0  0
    5.6210   -4.6730   28.5130 C   0  0  0  0  0  0  0  0  0  0  0  0
    4.4300   -4.3820   29.1470 C   0  0  0  0  0  0  0  0  0  0  0  0
    3.9490   -5.4990   29.8280 C   0  0  0  0  0  0  0  0  0  0  0  0
    5.0620   -6.0810   30.2400 N   0  0  0  0  0  0  0  0  0  0  0  0
    6.1210   -5.8030   29.2800 C   0  0  0  0  0  0  0  0  0  0  0  0
    7.2750   -6.5050   29.1630 O   0  0  0  0  0  0  0  0  0  0  0  0
    5.1860   -5.2320   27.2220 C   0  0  0  0  0  0  0  0  0  0  0  0
    4.5910   -3.8670   27.4270 C   0  0  0  0  0  0  0  0  0  0  0  0
    6.8980   -2.7410   23.3710 C   0  0  0  0  0  0  0  0  0  0  0  0
    7.6730   -3.2550   22.2090 C   0  0  0  0  0  0  0  0  0  0  0  0
  1  2  1  0
  2  3  2  0
  2  4  1  0
  4  5  1  0
  5  6  1  0
  6  7  1  0
  7  8  1  0
  8  9  2  0
  8 10  1  0
 10 11  1  0
 11 12  1  0
 12 13  1  0
 13 14  1  0
 14 15  1  0
 15 16  1  0
 13 17  1  0
 16 17  1  0
 17 18  2  0
 13 19  1  0
 10 20  1  0
 19 20  1  0
  7 21  1  0
  4 22  1  0
 21 22  1  0
M  END
