piperidine-amides-29777-covalent
     RDKit          3D

 24 26  0  0  0  0  0  0  0  0999 V2000
    7.0630   -3.3310   19.3540 C   0  0  0  0  0  0  0  0  0  0  0  0
    6.3800   -4.1800   20.3250 C   0  0  0  0  0  0  0  0  0  0  0  0
    5.3820   -4.8160   19.9780 O   0  0  0  0  0  0  0  0  0  0  0  0
    6.8860   -4.3170   21.6690 N   0  0  0  0  0  0  0  0  0  0  0  0
    6.6510   -5.5510   22.3870 C   0  0  0  0  0  0  0  0  0  0  0  0
    6.2380   -5.3040   23.8250 C   0  0  0  0  0  0  0  0  0  0  0  0
    6.2480   -3.8090   24.1020 C   0  0  0  0  0  0  0  0  0  0  0  0
    5.7240   -3.4850   25.4720 C   0  0  0  0  0  0  0  0  0  0  0  0
    4.5330   -3.1460   25.6120 O   0  0  0  0  0  0  0  0  0  0  0  0
    6.5290   -3.5480   26.6510 N   0  0  0  0  0  0  0  0  0  0  0  0
    7.7560   -4.2820   26.6310 C   0  0  0  0  0  0  0  0  0  0  0  0
    8.0200   -5.2030   28.0110 S   0  0  0  0  0  0  0  0  0  0  0  0
    6.4450   -4.6820   28.4110 C   0  0  0  0  0  0  0  0  0  0  0  0
    5.8640   -3.4760   27.9700 C   0  0  1  0  0  0  0  0  0  0  0  0
    6.0910   -2.3600   28.7830 C   0  0  0  0  0  0  0  0  0  0  0  0
    7.2210   -1.5650   28.5400 O   0  0  0  0  0  0  0  0  0  0  0  0
    5.2000   -2.0490   29.8370 N   0  0  0  0  0  0  0  0  0  0  0  0
    4.1120   -2.8600   30.2020 C   0  0  0  0  0  0  0  0  0  0  0  0
    2.8870   -2.3070   29.6410 C   0  0  0  0  0  0  0  0  0  0  0  0
    2.5670   -1.1730   30.8740 S   0  0  0  0  0  0  0  0  0  0  0  0
    4.1420   -0.8540   31.4410 C   0  0  0  0  0  0  0  0  0  0  0  0
    4.8100   -0.7280   30.2380 C   0  0  0  0  0  0  0  0  0  0  0  0
    7.4670   -3.0940   23.6760 C   0  0  0  0  0  0  0  0  0  0  0  0
    7.6670   -3.2590   22.2390 C   0  0  0  0  0  0  0  0  0  0  0  0
  1  2  1  0
  2  3  2  0
  2  4  1  0
  4  5  1  0
  5  6  1  0
  6  7  1  0
  7  8  1  0
  8  9  2  0
  8 10  1  0
 10 11  1  0
 11 12  1  0
 12 13  1  0
 10 14  1  0
 13 14  1  0
 14 15  1  1
 15 16  2  0
 15 17  1  0
 17 18  1  0
 18 19  1  0
 19 20  1  0
 20 21  1  0
 17 22  1  0
 21 22  1  0
  7 23  1  0
  4 24  1  0
 23 24  1  0
M  END
