piperidine-amides-31255-covalent
     RDKit          3D

 27 29  0  0  0  0  0  0  0  0999 V2000
    7.0920   -3.3440   19.3160 C   0  0  0  0  0  0  0  0  0  0  0  0
    6.4260   -4.1590   20.3300 C   0  0  0  0  0  0  0  0  0  0  0  0
    5.4300   -4.8330   19.9950 O   0  0  0  0  0  0  0  0  0  0  0  0
    6.9270   -4.2220   21.6490 N   0  0  0  0  0  0  0  0  0  0  0  0
    7.8030   -3.1780   22.1670 C   0  0  0  0  0  0  0  0  0  0  0  0
    7.5480   -3.0830   23.6480 C   0  0  0  0  0  0  0  0  0  0  0  0
    6.1910   -3.6090   23.9750 C   0  0  0  0  0  0  0  0  0  0  0  0
    5.5840   -3.0750   25.2220 C   0  0  0  0  0  0  0  0  0  0  0  0
    4.4750   -2.4730   25.1330 O   0  0  0  0  0  0  0  0  0  0  0  0
    6.0990   -3.1710   26.5350 N   0  0  0  0  0  0  0  0  0  0  0  0
    6.2600   -1.8570   27.2320 C   0  0  0  0  0  0  0  0  0  0  0  0
    6.9330   -1.8240   28.5360 C   0  0  0  0  0  0  0  0  0  0  0  0
    7.0930   -0.5760   29.2540 C   0  0  0  0  0  0  0  0  0  0  0  0
    6.5570    0.6810   28.6430 C   0  0  0  0  0  0  0  0  0  0  0  0
    6.6900    2.0150   29.3540 C   0  0  0  0  0  0  0  0  0  0  0  0
    6.6610    3.1080   28.3800 N   0  0  0  0  0  0  0  0  0  0  0  0
    5.8570    0.6310   27.2700 C   0  0  0  0  0  0  0  0  0  0  0  0
    5.6960   -0.5600   26.5620 C   0  0  0  0  0  0  0  0  0  0  0  0
    5.5970   -4.2660   27.3240 C   0  0  0  0  0  0  0  0  0  0  0  0
    6.4540   -4.6570   28.5200 C   0  0  0  0  0  0  0  0  0  0  0  0
    5.8330   -5.7990   29.2410 C   0  0  0  0  0  0  0  0  0  0  0  0
    4.6020   -6.1100   28.5050 C   0  0  0  0  0  0  0  0  0  0  0  0
    3.8670   -7.4540   29.3610 Cl  0  0  0  0  0  0  0  0  0  0  0  0
    3.8900   -5.9020   27.6470 N   0  0  0  0  0  0  0  0  0  0  0  0
    4.3800   -4.8620   26.9170 N   0  0  0  0  0  0  0  0  0  0  0  0
    6.2100   -5.0960   23.8210 C   0  0  0  0  0  0  0  0  0  0  0  0
    6.5930   -5.3880   22.4170 C   0  0  0  0  0  0  0  0  0  0  0  0
  1  2  1  0
  2  3  2  0
  2  4  1  0
  4  5  1  0
  5  6  1  0
  6  7  1  0
  7  8  1  0
  8  9  2  0
  8 10  1  0
 10 11  1  0
 11 12  2  0
 12 13  1  0
 13 14  2  0
 14 15  1  0
 15 16  3  0
 14 17  1  0
 11 18  1  0
 17 18  2  0
 10 19  1  0
 19 20  2  0
 20 21  1  0
 21 22  2  0
 22 23  1  0
 22 24  1  0
 19 25  1  0
 24 25  2  0
  7 26  1  0
  4 27  1  0
 26 27  1  0
M  END
