piperidine-amides-5076-covalent
     RDKit          3D

 22 24  0  0  0  0  0  0  0  0999 V2000
    7.0680   -3.3330   19.3500 C   0  0  0  0  0  0  0  0  0  0  0  0
    6.4050   -4.1780   20.3660 C   0  0  0  0  0  0  0  0  0  0  0  0
    5.3950   -4.8070   19.9800 O   0  0  0  0  0  0  0  0  0  0  0  0
    6.9200   -4.3000   21.6730 N   0  0  0  0  0  0  0  0  0  0  0  0
    7.6960   -3.2450   22.2610 C   0  0  0  0  0  0  0  0  0  0  0  0
    7.3030   -2.8890   23.6290 C   0  0  0  0  0  0  0  0  0  0  0  0
    6.0500   -3.5390   24.0570 C   0  0  0  0  0  0  0  0  0  0  0  0
    5.6230   -3.1470   25.4350 C   0  0  0  0  0  0  0  0  0  0  0  0
    4.4040   -3.2560   25.6990 O   0  0  0  0  0  0  0  0  0  0  0  0
    6.5280   -2.6590   26.4190 N   0  0  0  0  0  0  0  0  0  0  0  0
    6.4470   -1.3050   27.1190 C   0  0  0  0  0  0  0  0  0  0  0  0
    5.9890    0.1480   26.5390 C   0  0  0  0  0  0  0  0  0  0  0  0
    5.7060    1.5920   26.5680 C   0  0  0  0  0  0  0  0  0  0  0  0
    6.2030    0.9480   27.8810 N   0  0  0  0  0  0  0  0  0  0  0  0
    6.6530    0.1530   28.9150 C   0  0  0  0  0  0  0  0  0  0  0  0
    6.4860   -0.4250   27.9000 C   0  0  0  0  0  0  0  0  0  0  0  0
    6.7220   -1.7540   27.7970 C   0  0  0  0  0  0  0  0  0  0  0  0
    6.3710   -1.4880   26.7140 C   0  0  0  0  0  0  0  0  0  0  0  0
    6.2540   -0.2000   27.2330 C   0  0  0  0  0  0  0  0  0  0  0  0
    6.7700   -1.0340   28.4680 C   0  0  0  0  0  0  0  0  0  0  0  0
    6.0110   -5.0080   23.8360 C   0  0  0  0  0  0  0  0  0  0  0  0
    6.6340   -5.4500   22.5290 C   0  0  0  0  0  0  0  0  0  0  0  0
  1  2  1  0
  2  3  2  0
  2  4  1  0
  4  5  1  0
  5  6  1  0
  6  7  1  0
  7  8  1  0
  8  9  2  0
  8 10  1  0
 10 11  1  0
 11 12  2  0
 12 13  1  0
 12 14  1  0
 14 15  1  0
 15 16  1  0
 16 17  2  0
 17 18  1  0
 18 19  2  0
 11 20  1  0
 15 20  2  0
 19 20  1  0
  7 21  1  0
  4 22  1  0
 21 22  1  0
M  END
