piperidine-amides-23749-covalent
     RDKit          3D

 24 25  0  0  0  0  0  0  0  0999 V2000
    7.0760   -3.3210   19.3190 C   0  0  0  0  0  0  0  0  0  0  0  0
    6.3840   -4.1420   20.3320 C   0  0  0  0  0  0  0  0  0  0  0  0
    5.3620   -4.7610   19.9560 O   0  0  0  0  0  0  0  0  0  0  0  0
    6.8750   -4.2710   21.6610 N   0  0  0  0  0  0  0  0  0  0  0  0
    7.7070   -3.2570   22.2010 C   0  0  0  0  0  0  0  0  0  0  0  0
    7.5260   -3.1580   23.6280 C   0  0  0  0  0  0  0  0  0  0  0  0
    6.2210   -3.7070   24.0320 C   0  0  0  0  0  0  0  0  0  0  0  0
    5.8830   -3.3950   25.4620 C   0  0  0  0  0  0  0  0  0  0  0  0
    4.6870   -3.4530   25.8160 O   0  0  0  0  0  0  0  0  0  0  0  0
    6.8550   -3.0370   26.4210 N   0  0  0  0  0  0  0  0  0  0  0  0
    7.6050   -3.9940   27.1790 C   0  0  0  0  0  0  0  0  0  0  0  0
    8.4650   -5.0020   26.5500 C   0  0  0  0  0  0  0  0  0  0  0  0
    6.6830   -1.7380   27.0900 C   0  0  0  0  0  0  0  0  0  0  0  0
    7.2230   -1.7690   28.3790 C   0  0  0  0  0  0  0  0  0  0  0  0
    7.1560   -0.4980   29.3200 C   0  0  0  0  0  0  0  0  0  0  0  0
    6.5010    0.7970   28.8410 C   0  0  0  0  0  0  0  0  0  0  0  0
    5.9710    0.6820   27.4370 C   0  0  0  0  0  0  0  0  0  0  0  0
    6.0430   -0.4980   26.5900 C   0  0  0  0  0  0  0  0  0  0  0  0
    5.4110   -0.2900   25.2190 C   0  0  0  0  0  0  0  0  0  0  0  0
    6.0660   -0.3450   24.1490 O   0  0  0  0  0  0  0  0  0  0  0  0
    4.0710   -0.0080   25.1680 O   0  0  0  0  0  0  0  0  0  0  0  0
    3.2510   -0.2810   24.0480 C   0  0  0  0  0  0  0  0  0  0  0  0
    6.0560   -5.1660   23.6970 C   0  0  0  0  0  0  0  0  0  0  0  0
    6.6540   -5.4650   22.4530 C   0  0  0  0  0  0  0  0  0  0  0  0
  1  2  1  0
  2  3  2  0
  2  4  1  0
  4  5  1  0
  5  6  1  0
  6  7  1  0
  7  8  1  0
  8  9  2  0
  8 10  1  0
 10 11  1  0
 11 12  1  0
 10 13  1  0
 13 14  2  0
 14 15  1  0
 15 16  2  0
 16 17  1  0
 13 18  1  0
 17 18  2  0
 18 19  1  0
 19 20  2  0
 19 21  1  0
 21 22  1  0
  7 23  1  0
  4 24  1  0
 23 24  1  0
M  END
