piperidine-amides-29366-covalent
     RDKit          3D

 27 29  0  0  0  0  0  0  0  0999 V2000
    7.0240   -3.3770   19.3590 C   0  0  0  0  0  0  0  0  0  0  0  0
    6.3640   -4.2730   20.3090 C   0  0  0  0  0  0  0  0  0  0  0  0
    5.3170   -4.8320   19.9590 O   0  0  0  0  0  0  0  0  0  0  0  0
    6.9360   -4.5350   21.5740 N   0  0  0  0  0  0  0  0  0  0  0  0
    7.6190   -3.4440   22.1800 C   0  0  0  0  0  0  0  0  0  0  0  0
    6.6180   -2.7890   23.0570 C   0  0  0  0  0  0  0  0  0  0  0  0
    6.3330   -3.8150   24.1080 C   0  0  0  0  0  0  0  0  0  0  0  0
    5.8320   -3.0780   25.3040 C   0  0  0  0  0  0  0  0  0  0  0  0
    4.6370   -3.1360   25.5920 O   0  0  0  0  0  0  0  0  0  0  0  0
    6.8460   -2.3850   25.9470 N   0  0  0  0  0  0  0  0  0  0  0  0
    8.1270   -2.9200   25.8120 C   0  0  0  0  0  0  0  0  0  0  0  0
    9.0890   -2.3230   24.9370 C   0  0  0  0  0  0  0  0  0  0  0  0
    8.9160   -1.8710   23.6510 C   0  0  0  0  0  0  0  0  0  0  0  0
   10.0810   -1.4110   23.1870 C   0  0  0  0  0  0  0  0  0  0  0  0
   11.0860   -1.5210   24.1210 N   0  0  0  0  0  0  0  0  0  0  0  0
   12.4770   -1.1130   23.9090 C   0  0  0  0  0  0  0  0  0  0  0  0
   10.4500   -2.0720   25.1780 N   0  0  0  0  0  0  0  0  0  0  0  0
    6.6420   -1.3930   26.9500 C   0  0  0  0  0  0  0  0  0  0  0  0
    5.8340   -0.2400   26.4830 C   0  0  0  0  0  0  0  0  0  0  0  0
    5.5940    0.8550   27.4830 C   0  0  0  0  0  0  0  0  0  0  0  0
    6.1900    0.7100   28.8990 C   0  0  0  0  0  0  0  0  0  0  0  0
    6.0860    1.5900   29.9490 C   0  0  0  0  0  0  0  0  0  0  0  0
    4.8500    1.8780   30.4820 C   0  0  0  0  0  0  0  0  0  0  0  0
    7.0080   -0.5170   29.2890 C   0  0  0  0  0  0  0  0  0  0  0  0
    7.1820   -1.5420   28.2130 C   0  0  0  0  0  0  0  0  0  0  0  0
    5.4150   -4.8500   23.4810 C   0  0  0  0  0  0  0  0  0  0  0  0
    6.2610   -5.5380   22.3840 C   0  0  0  0  0  0  0  0  0  0  0  0
  1  2  1  0
  2  3  2  0
  2  4  1  0
  4  5  1  0
  5  6  1  0
  6  7  1  0
  7  8  1  0
  8  9  2  0
  8 10  1  0
 10 11  1  0
 11 12  1  0
 12 13  1  0
 13 14  2  0
 14 15  1  0
 15 16  1  0
 12 17  2  0
 15 17  1  0
 10 18  1  0
 18 19  2  0
 19 20  1  0
 20 21  2  0
 21 22  1  0
 22 23  1  0
 21 24  1  0
 18 25  1  0
 24 25  2  0
  7 26  1  0
  4 27  1  0
 26 27  1  0
M  END
