piperidine-amides-24121-covalent
     RDKit          3D

 24 25  0  0  0  0  0  0  0  0999 V2000
    7.1730   -3.2920   19.2360 C   0  0  0  0  0  0  0  0  0  0  0  0
    6.3780   -4.0290   20.2290 C   0  0  0  0  0  0  0  0  0  0  0  0
    5.2720   -4.4880   19.8640 O   0  0  0  0  0  0  0  0  0  0  0  0
    6.8960   -4.2590   21.5230 N   0  0  0  0  0  0  0  0  0  0  0  0
    7.6050   -3.2040   22.1370 C   0  0  0  0  0  0  0  0  0  0  0  0
    7.5530   -3.1990   23.5880 C   0  0  0  0  0  0  0  0  0  0  0  0
    6.5430   -4.0700   24.2430 C   0  0  0  0  0  0  0  0  0  0  0  0
    5.8060   -3.2550   25.2570 C   0  0  0  0  0  0  0  0  0  0  0  0
    4.5590   -3.1960   25.2330 O   0  0  0  0  0  0  0  0  0  0  0  0
    6.5220   -2.5460   26.2320 N   0  0  0  0  0  0  0  0  0  0  0  0
    6.4440   -1.1820   26.5730 C   0  0  0  0  0  0  0  0  0  0  0  0
    7.6780   -3.1920   26.7730 C   0  0  0  0  0  0  0  0  0  0  0  0
    7.8600   -3.0010   28.2710 C   0  0  0  0  0  0  0  0  0  0  0  0
    7.9850   -4.2720   28.7260 O   0  0  0  0  0  0  0  0  0  0  0  0
    6.7370   -4.8690   28.7420 C   0  0  0  0  0  0  0  0  0  0  0  0
    5.5770   -3.9810   29.2600 C   0  0  0  0  0  0  0  0  0  0  0  0
    4.2040   -4.6490   29.2850 C   0  0  0  0  0  0  0  0  0  0  0  0
    4.2660   -6.1000   28.7710 C   0  0  0  0  0  0  0  0  0  0  0  0
    5.4270   -6.8850   28.2850 C   0  0  0  0  0  0  0  0  0  0  0  0
    6.7100   -6.1360   28.3060 C   0  0  0  0  0  0  0  0  0  0  0  0
    7.8810   -6.6930   27.8920 O   0  0  0  0  0  0  0  0  0  0  0  0
    8.8840   -6.0240   27.1340 C   0  0  0  0  0  0  0  0  0  0  0  0
    5.6010   -4.7570   23.2950 C   0  0  0  0  0  0  0  0  0  0  0  0
    6.4490   -5.3430   22.3550 C   0  0  0  0  0  0  0  0  0  0  0  0
  1  2  1  0
  2  3  2  0
  2  4  1  0
  4  5  1  0
  5  6  1  0
  6  7  1  0
  7  8  1  0
  8  9  2  0
  8 10  1  0
 10 11  1  0
 10 12  1  0
 12 13  1  0
 13 14  1  0
 14 15  1  0
 15 16  2  0
 16 17  1  0
 17 18  2  0
 18 19  1  0
 15 20  1  0
 19 20  2  0
 20 21  1  0
 21 22  1  0
  7 23  1  0
  4 24  1  0
 23 24  1  0
M  END
