piperidine-amides-2181-covalent
     RDKit          3D

 30 32  0  0  0  0  0  0  0  0999 V2000
    7.1000   -3.3380   19.2730 C   0  0  0  0  0  0  0  0  0  0  0  0
    6.3520   -4.1260   20.2810 C   0  0  0  0  0  0  0  0  0  0  0  0
    5.2970   -4.6400   19.9200 O   0  0  0  0  0  0  0  0  0  0  0  0
    6.8930   -4.3020   21.5540 N   0  0  0  0  0  0  0  0  0  0  0  0
    7.6790   -3.2860   22.1960 C   0  0  0  0  0  0  0  0  0  0  0  0
    6.8940   -2.7200   23.3350 C   0  0  0  0  0  0  0  0  0  0  0  0
    6.4980   -3.8590   24.2670 C   0  0  0  0  0  0  0  0  0  0  0  0
    5.7910   -3.2440   25.4030 C   0  0  0  0  0  0  0  0  0  0  0  0
    4.5820   -2.9960   25.3090 O   0  0  0  0  0  0  0  0  0  0  0  0
    6.4810   -2.9480   26.5870 N   0  0  0  0  0  0  0  0  0  0  0  0
    6.3670   -1.6380   27.1850 C   0  0  0  0  0  0  0  0  0  0  0  0
    6.9870   -1.5480   28.5470 C   0  0  0  0  0  0  0  0  0  0  0  0
    7.0540   -0.4810   29.3810 C   0  0  0  0  0  0  0  0  0  0  0  0
    6.4800    0.6750   28.9340 C   0  0  0  0  0  0  0  0  0  0  0  0
    6.5420    1.7590   29.7880 O   0  0  0  0  0  0  0  0  0  0  0  0
    6.1900    1.4340   31.0870 C   0  0  0  0  0  0  0  0  0  0  0  0
    7.4550    1.2280   31.9000 C   0  0  0  0  0  0  0  0  0  0  0  0
    8.6030    1.4520   30.9640 C   0  0  0  0  0  0  0  0  0  0  0  0
    9.9800    1.2850   31.5950 C   0  0  0  0  0  0  0  0  0  0  0  0
   10.0900    0.9300   33.0500 C   0  0  0  0  0  0  0  0  0  0  0  0
    8.9020    0.7280   33.9190 C   0  0  0  0  0  0  0  0  0  0  0  0
    9.1300    0.2870   35.7640 Br  0  0  0  0  0  0  0  0  0  0  0  0
    7.5170    0.8720   33.3560 C   0  0  0  0  0  0  0  0  0  0  0  0
    5.8150    0.7450   27.5740 C   0  0  0  0  0  0  0  0  0  0  0  0
    5.1720    2.0090   27.0430 C   0  0  0  0  0  0  0  0  0  0  0  0
    4.1720    1.8960   26.1710 N   0  0  0  0  0  0  0  0  0  0  0  0
    5.6060    3.2670   27.4430 O   0  0  0  0  0  0  0  0  0  0  0  0
    5.7790   -0.4660   26.7010 C   0  0  0  0  0  0  0  0  0  0  0  0
    5.7150   -4.9090   23.5370 C   0  0  0  0  0  0  0  0  0  0  0  0
    6.5290   -5.4660   22.3640 C   0  0  0  0  0  0  0  0  0  0  0  0
  1  2  1  0
  2  3  2  0
  2  4  1  0
  4  5  1  0
  5  6  1  0
  6  7  1  0
  7  8  1  0
  8  9  2  0
  8 10  1  0
 10 11  1  0
 11 12  2  0
 12 13  1  0
 13 14  2  0
 14 15  1  0
 15 16  1  0
 16 17  1  0
 17 18  2  0
 18 19  1  0
 19 20  2  0
 20 21  1  0
 21 22  1  0
 17 23  1  0
 21 23  2  0
 14 24  1  0
 24 25  1  0
 25 26  1  0
 25 27  2  0
 11 28  1  0
 24 28  2  0
  7 29  1  0
  4 30  1  0
 29 30  1  0
M  END
