piperidine-amides-1785-covalent
     RDKit          3D

 19 20  0  0  0  0  0  0  0  0999 V2000
    7.1380   -3.2980   19.2810 C   0  0  0  0  0  0  0  0  0  0  0  0
    6.3470   -4.0630   20.2790 C   0  0  0  0  0  0  0  0  0  0  0  0
    5.2970   -4.6180   19.9170 O   0  0  0  0  0  0  0  0  0  0  0  0
    6.8460   -4.1750   21.5910 N   0  0  0  0  0  0  0  0  0  0  0  0
    7.7190   -3.1930   22.1840 C   0  0  0  0  0  0  0  0  0  0  0  0
    7.0000   -2.6440   23.4140 C   0  0  0  0  0  0  0  0  0  0  0  0
    6.4880   -3.8100   24.1950 C   0  0  0  0  0  0  0  0  0  0  0  0
    5.6390   -3.3810   25.3380 C   0  0  0  0  0  0  0  0  0  0  0  0
    4.5810   -2.8250   25.0250 O   0  0  0  0  0  0  0  0  0  0  0  0
    6.0230   -3.5940   26.6700 N   0  0  0  0  0  0  0  0  0  0  0  0
    5.9770   -4.8180   27.4030 C   0  0  0  0  0  0  0  0  0  0  0  0
    4.8790   -5.3600   28.0310 C   0  0  0  0  0  0  0  0  0  0  0  0
    5.1230   -5.7990   29.3360 C   0  0  0  0  0  0  0  0  0  0  0  0
    4.9730   -7.1170   29.6030 F   0  0  0  0  0  0  0  0  0  0  0  0
    3.7060   -4.3960   28.0630 C   0  0  0  0  0  0  0  0  0  0  0  0
    2.9710   -5.4300   27.3450 C   0  0  0  0  0  0  0  0  0  0  0  0
    4.1720   -6.3700   27.3260 C   0  0  0  0  0  0  0  0  0  0  0  0
    5.7040   -4.8400   23.4180 C   0  0  0  0  0  0  0  0  0  0  0  0
    6.4830   -5.3090   22.3760 C   0  0  0  0  0  0  0  0  0  0  0  0
  1  2  1  0
  2  3  2  0
  2  4  1  0
  4  5  1  0
  5  6  1  0
  6  7  1  0
  7  8  1  0
  8  9  2  0
  8 10  1  0
 10 11  1  0
 12 11  1  0
 12 13  1  0
 13 14  1  0
 12 15  1  0
 15 16  1  0
 12 17  1  0
 16 17  1  0
  7 18  1  0
  4 19  1  0
 18 19  1  0
M  END
