piperidine-amides-30859-covalent
     RDKit          3D

 23 24  0  0  0  0  0  0  0  0999 V2000
    7.0680   -3.2860   19.2960 C   0  0  0  0  0  0  0  0  0  0  0  0
    6.3090   -4.1070   20.2470 C   0  0  0  0  0  0  0  0  0  0  0  0
    5.2230   -4.5720   19.8820 O   0  0  0  0  0  0  0  0  0  0  0  0
    6.7790   -4.4530   21.5230 N   0  0  0  0  0  0  0  0  0  0  0  0
    6.4630   -5.6950   22.1560 C   0  0  0  0  0  0  0  0  0  0  0  0
    6.3880   -5.3300   23.6090 C   0  0  0  0  0  0  0  0  0  0  0  0
    5.8790   -3.9330   23.8170 C   0  0  0  0  0  0  0  0  0  0  0  0
    5.7520   -3.5780   25.2510 C   0  0  0  0  0  0  0  0  0  0  0  0
    4.6360   -3.1870   25.7150 O   0  0  0  0  0  0  0  0  0  0  0  0
    6.8340   -3.6530   26.1540 N   0  0  0  0  0  0  0  0  0  0  0  0
    7.5120   -2.3810   26.4670 C   0  0  0  0  0  0  0  0  0  0  0  0
    7.7650   -1.7030   25.1750 C   0  0  0  0  0  0  0  0  0  0  0  0
    6.7910   -0.7250   24.6800 C   0  0  0  0  0  0  0  0  0  0  0  0
    7.0640   -0.0450   23.3790 C   0  0  0  0  0  0  0  0  0  0  0  0
    8.3260   -0.3760   22.6100 C   0  0  0  0  0  0  0  0  0  0  0  0
    9.2160   -1.3930   23.2500 C   0  0  0  0  0  0  0  0  0  0  0  0
   10.8200   -1.8350   22.3110 Br  0  0  0  0  0  0  0  0  0  0  0  0
    8.9070   -1.9990   24.4660 C   0  0  0  0  0  0  0  0  0  0  0  0
    7.3540   -4.9030   26.6400 C   0  0  0  0  0  0  0  0  0  0  0  0
    8.8140   -5.2250   26.3890 C   0  0  0  0  0  0  0  0  0  0  0  0
    6.9800   -5.3090   28.0260 C   0  0  0  0  0  0  0  0  0  0  0  0
    6.7160   -2.9100   23.0140 C   0  0  0  0  0  0  0  0  0  0  0  0
    7.5140   -3.4540   22.2930 C   0  0  0  0  0  0  0  0  0  0  0  0
  1  2  1  0
  2  3  2  0
  2  4  1  0
  4  5  1  0
  5  6  1  0
  6  7  1  0
  7  8  1  0
  8  9  2  0
  8 10  1  0
 10 11  1  0
 11 12  1  0
 12 13  2  0
 13 14  1  0
 14 15  2  0
 15 16  1  0
 16 17  1  0
 12 18  1  0
 16 18  2  0
 10 19  1  0
 19 20  1  0
 19 21  1  0
  7 22  1  0
  4 23  1  0
 22 23  1  0
M  END
