piperidine-amides-11823-covalent
     RDKit          3D

 27 29  0  0  0  0  0  0  0  0999 V2000
    7.1330   -3.3130   19.2210 C   0  0  0  0  0  0  0  0  0  0  0  0
    6.3420   -4.0390   20.2010 C   0  0  0  0  0  0  0  0  0  0  0  0
    5.2580   -4.5200   19.8800 O   0  0  0  0  0  0  0  0  0  0  0  0
    6.8630   -4.2580   21.5170 N   0  0  0  0  0  0  0  0  0  0  0  0
    7.6080   -3.2180   22.1730 C   0  0  0  0  0  0  0  0  0  0  0  0
    6.8380   -2.7100   23.3550 C   0  0  0  0  0  0  0  0  0  0  0  0
    6.4460   -3.8980   24.2190 C   0  0  0  0  0  0  0  0  0  0  0  0
    5.6840   -3.4350   25.4150 C   0  0  0  0  0  0  0  0  0  0  0  0
    4.5200   -3.0030   25.3350 O   0  0  0  0  0  0  0  0  0  0  0  0
    6.3230   -3.4710   26.6770 N   0  0  0  0  0  0  0  0  0  0  0  0
    5.6940   -4.0680   27.8480 C   0  0  2  0  0  0  0  0  0  0  0  0
    6.6350   -5.1020   28.4010 C   0  0  0  0  0  0  0  0  0  0  0  0
    6.1840   -6.0460   29.2970 C   0  0  0  0  0  0  0  0  0  0  0  0
    4.3930   -4.7530   27.6590 C   0  0  0  0  0  0  0  0  0  0  0  0
    3.3890   -4.4120   26.7000 N   0  0  0  0  0  0  0  0  0  0  0  0
    2.4020   -5.2830   26.8830 O   0  0  0  0  0  0  0  0  0  0  0  0
    2.8270   -6.1310   27.9410 C   0  0  0  0  0  0  0  0  0  0  0  0
    2.1000   -7.2570   28.5200 C   0  0  0  0  0  0  0  0  0  0  0  0
    1.2970   -8.1770   27.8810 C   0  0  0  0  0  0  0  0  0  0  0  0
    0.6440   -9.2130   28.4880 C   0  0  0  0  0  0  0  0  0  0  0  0
    0.7660   -9.3910   29.8440 C   0  0  0  0  0  0  0  0  0  0  0  0
    1.5940   -8.4670   30.6140 C   0  0  0  0  0  0  0  0  0  0  0  0
    1.8010   -8.6740   32.5250 Br  0  0  0  0  0  0  0  0  0  0  0  0
    2.2280   -7.4340   29.9070 C   0  0  0  0  0  0  0  0  0  0  0  0
    4.0910   -5.7810   28.4270 N   0  0  0  0  0  0  0  0  0  0  0  0
    5.6090   -4.8930   23.4560 C   0  0  0  0  0  0  0  0  0  0  0  0
    6.3510   -5.3510   22.2510 C   0  0  0  0  0  0  0  0  0  0  0  0
  1  2  1  0
  2  3  2  0
  2  4  1  0
  4  5  1  0
  5  6  1  0
  6  7  1  0
  7  8  1  0
  8  9  2  0
  8 10  1  0
 10 11  1  0
 11 12  1  6
 12 13  1  0
 11 14  1  0
 14 15  2  0
 15 16  1  0
 16 17  1  0
 17 18  1  0
 18 19  2  0
 19 20  1  0
 20 21  2  0
 21 22  1  0
 22 23  1  0
 18 24  1  0
 22 24  2  0
 14 25  1  0
 17 25  2  0
  7 26  1  0
  4 27  1  0
 26 27  1  0
M  END
