piperidine-amides-78-covalent
     RDKit          3D

 23 25  0  0  0  0  0  0  0  0999 V2000
    7.0690   -3.3520   19.2540 C   0  0  0  0  0  0  0  0  0  0  0  0
    6.3120   -4.0280   20.2870 C   0  0  0  0  0  0  0  0  0  0  0  0
    5.2550   -4.6230   19.9140 O   0  0  0  0  0  0  0  0  0  0  0  0
    6.7060   -4.1160   21.6430 N   0  0  0  0  0  0  0  0  0  0  0  0
    7.6650   -3.0770   22.1450 C   0  0  0  0  0  0  0  0  0  0  0  0
    7.3740   -3.0090   23.7010 C   0  0  0  0  0  0  0  0  0  0  0  0
    6.0980   -3.7820   23.8710 C   0  0  0  0  0  0  0  0  0  0  0  0
    5.2820   -3.5890   25.2180 C   0  0  0  0  0  0  0  0  0  0  0  0
    4.2060   -4.1530   25.1270 O   0  0  0  0  0  0  0  0  0  0  0  0
    5.9100   -2.8950   26.0700 N   0  0  0  0  0  0  0  0  0  0  0  0
    6.4230   -2.1060   27.0360 C   0  0  0  0  0  0  0  0  0  0  0  0
    6.0580   -1.1850   27.9830 C   0  0  0  0  0  0  0  0  0  0  0  0
    5.1200   -0.1610   27.6760 C   0  0  0  0  0  0  0  0  0  0  0  0
    4.8540    0.6870   28.7700 F   0  0  0  0  0  0  0  0  0  0  0  0
    3.8410   -0.7580   27.4050 F   0  0  0  0  0  0  0  0  0  0  0  0
    7.1640   -0.7090   28.9490 C   0  0  0  0  0  0  0  0  0  0  0  0
    6.3840   -1.4710   29.9940 C   0  0  0  0  0  0  0  0  0  0  0  0
    6.5560   -0.3840   30.7180 C   0  0  0  0  0  0  0  0  0  0  0  0
    5.3010   -0.1890   31.3570 C   0  0  0  0  0  0  0  0  0  0  0  0
    4.9710   -1.3990   30.3340 C   0  0  0  0  0  0  0  0  0  0  0  0
    5.1960   -1.7560   29.1230 C   0  0  0  0  0  0  0  0  0  0  0  0
    6.3420   -5.2630   23.5920 C   0  0  0  0  0  0  0  0  0  0  0  0
    6.6900   -5.4250   22.2860 C   0  0  0  0  0  0  0  0  0  0  0  0
  1  2  1  0
  2  3  2  0
  2  4  1  0
  4  5  1  0
  5  6  1  0
  6  7  1  0
  7  8  1  0
  8  9  2  0
  8 10  1  0
 10 11  1  0
 12 11  1  0
 12 13  1  0
 13 14  1  0
 13 15  1  0
 12 16  1  0
 17 16  1  0
 17 18  1  0
 18 19  1  0
 17 20  1  0
 19 20  1  0
 12 21  1  0
 17 21  1  0
  7 22  1  0
  4 23  1  0
 22 23  1  0
M  END
