piperidine-amides-30149-covalent
     RDKit          3D

 27 29  0  0  0  0  0  0  0  0999 V2000
    7.1560   -3.2380   19.1390 C   0  0  0  0  0  0  0  0  0  0  0  0
    6.3470   -3.9890   20.0940 C   0  0  0  0  0  0  0  0  0  0  0  0
    5.2250   -4.3900   19.8060 O   0  0  0  0  0  0  0  0  0  0  0  0
    6.9010   -4.3150   21.3620 N   0  0  0  0  0  0  0  0  0  0  0  0
    6.4190   -5.4910   22.0480 C   0  0  0  0  0  0  0  0  0  0  0  0
    5.5300   -5.1000   23.1960 C   0  0  0  0  0  0  0  0  0  0  0  0
    6.2740   -4.0230   23.9500 C   0  0  0  0  0  0  0  0  0  0  0  0
    5.5140   -3.4960   25.0920 C   0  0  0  0  0  0  0  0  0  0  0  0
    4.2700   -3.4500   25.1550 O   0  0  0  0  0  0  0  0  0  0  0  0
    6.2880   -3.0150   26.1380 N   0  0  0  0  0  0  0  0  0  0  0  0
    6.9880   -1.7810   25.8640 C   0  0  0  0  0  0  0  0  0  0  0  0
    8.2950   -2.0870   25.1230 C   0  0  0  0  0  0  0  0  0  0  0  0
    8.6670   -1.3720   23.9700 C   0  0  0  0  0  0  0  0  0  0  0  0
    9.8700   -1.6390   23.2810 C   0  0  0  0  0  0  0  0  0  0  0  0
   10.6990   -2.6190   23.7450 C   0  0  0  0  0  0  0  0  0  0  0  0
   10.3130   -3.3460   24.9210 C   0  0  0  0  0  0  0  0  0  0  0  0
    9.1460   -3.0740   25.5730 C   0  0  0  0  0  0  0  0  0  0  0  0
    6.4400   -3.7870   27.3590 C   0  0  0  0  0  0  0  0  0  0  0  0
    7.0510   -5.0410   27.3520 C   0  0  0  0  0  0  0  0  0  0  0  0
    6.0940   -5.9900   27.6060 O   0  0  0  0  0  0  0  0  0  0  0  0
    7.6270   -5.3760   26.0590 C   0  0  0  0  0  0  0  0  0  0  0  0
    8.8660   -5.9370   26.1440 C   0  0  0  0  0  0  0  0  0  0  0  0
    9.5970   -5.0670   26.8300 O   0  0  0  0  0  0  0  0  0  0  0  0
    9.3830   -5.0830   28.2050 C   0  0  0  0  0  0  0  0  0  0  0  0
    7.9100   -5.2910   28.3900 C   0  0  0  0  0  0  0  0  0  0  0  0
    6.6120   -2.8390   23.1240 C   0  0  0  0  0  0  0  0  0  0  0  0
    7.5750   -3.2800   22.0760 C   0  0  0  0  0  0  0  0  0  0  0  0
  1  2  1  0
  2  3  2  0
  2  4  1  0
  4  5  1  0
  5  6  1  0
  6  7  1  0
  7  8  1  0
  8  9  2  0
  8 10  1  0
 10 11  1  0
 11 12  1  0
 12 13  2  0
 13 14  1  0
 14 15  2  0
 15 16  1  0
 12 17  1  0
 16 17  2  0
 10 18  1  0
 18 19  1  0
 19 20  1  0
 19 21  1  0
 21 22  1  0
 22 23  1  0
 23 24  1  0
 19 25  1  0
 24 25  1  0
  7 26  1  0
  4 27  1  0
 26 27  1  0
M  END
