piperidine-amides-13749-covalent
     RDKit          3D

 27 28  0  0  0  0  0  0  0  0999 V2000
    7.1630   -3.2630   19.2440 C   0  0  0  0  0  0  0  0  0  0  0  0
    6.3420   -4.0030   20.2400 C   0  0  0  0  0  0  0  0  0  0  0  0
    5.2750   -4.5300   19.8820 O   0  0  0  0  0  0  0  0  0  0  0  0
    6.8300   -4.1270   21.5500 N   0  0  0  0  0  0  0  0  0  0  0  0
    7.7160   -3.1210   22.1030 C   0  0  0  0  0  0  0  0  0  0  0  0
    7.5580   -3.1070   23.6220 C   0  0  0  0  0  0  0  0  0  0  0  0
    6.1710   -3.5550   23.9170 C   0  0  0  0  0  0  0  0  0  0  0  0
    5.7100   -3.1820   25.2690 C   0  0  0  0  0  0  0  0  0  0  0  0
    4.4840   -3.1560   25.4320 O   0  0  0  0  0  0  0  0  0  0  0  0
    6.6260   -2.8840   26.2900 N   0  0  0  0  0  0  0  0  0  0  0  0
    6.3260   -2.9090   27.6740 C   0  0  1  0  0  0  0  0  0  0  0  0
    6.9920   -3.7170   28.5420 C   0  0  0  0  0  0  0  0  0  0  0  0
    7.0910   -5.0710   28.3150 C   0  0  0  0  0  0  0  0  0  0  0  0
    8.2810   -5.4250   27.7990 C   0  0  0  0  0  0  0  0  0  0  0  0
    9.3970   -5.7630   28.3770 O   0  0  0  0  0  0  0  0  0  0  0  0
    8.3910   -5.4270   26.4700 O   0  0  0  0  0  0  0  0  0  0  0  0
    9.3490   -6.2590   25.8910 C   0  0  0  0  0  0  0  0  0  0  0  0
    6.1300   -1.6230   28.2090 C   0  0  0  0  0  0  0  0  0  0  0  0
    6.4580   -0.3040   27.5050 C   0  0  0  0  0  0  0  0  0  0  0  0
    6.2580    0.9510   28.0540 C   0  0  0  0  0  0  0  0  0  0  0  0
    5.6960    1.1940   29.4090 C   0  0  0  0  0  0  0  0  0  0  0  0
    5.5090    2.4500   29.9270 O   0  0  0  0  0  0  0  0  0  0  0  0
    6.4960    3.1120   30.6800 C   0  0  0  0  0  0  0  0  0  0  0  0
    5.3530   -0.0670   30.1500 C   0  0  0  0  0  0  0  0  0  0  0  0
    5.5580   -1.4800   29.5760 C   0  0  0  0  0  0  0  0  0  0  0  0
    5.9340   -5.0040   23.6310 C   0  0  0  0  0  0  0  0  0  0  0  0
    6.5980   -5.3460   22.3020 C   0  0  0  0  0  0  0  0  0  0  0  0
  1  2  1  0
  2  3  2  0
  2  4  1  0
  4  5  1  0
  5  6  1  0
  6  7  1  0
  7  8  1  0
  8  9  2  0
  8 10  1  0
 10 11  1  0
 11 12  1  1
 12 13  1  0
 13 14  1  0
 14 15  2  0
 14 16  1  0
 16 17  1  0
 11 18  1  0
 18 19  2  0
 19 20  1  0
 20 21  2  0
 21 22  1  0
 22 23  1  0
 21 24  1  0
 18 25  1  0
 24 25  2  0
  7 26  1  0
  4 27  1  0
 26 27  1  0
M  END
