piperidine-amides-204-covalent
     RDKit          3D

 23 25  0  0  0  0  0  0  0  0999 V2000
    7.0980   -3.3760   19.2850 C   0  0  0  0  0  0  0  0  0  0  0  0
    6.4210   -4.1290   20.3060 C   0  0  0  0  0  0  0  0  0  0  0  0
    5.3640   -4.7490   19.9690 O   0  0  0  0  0  0  0  0  0  0  0  0
    6.9200   -4.2670   21.6210 N   0  0  0  0  0  0  0  0  0  0  0  0
    7.7350   -3.1770   22.2030 C   0  0  0  0  0  0  0  0  0  0  0  0
    6.7220   -2.6620   23.2830 C   0  0  0  0  0  0  0  0  0  0  0  0
    6.4820   -3.8370   24.1990 C   0  0  0  0  0  0  0  0  0  0  0  0
    5.5370   -3.4320   25.4000 C   0  0  0  0  0  0  0  0  0  0  0  0
    4.4630   -3.9940   25.2630 O   0  0  0  0  0  0  0  0  0  0  0  0
    6.0710   -2.6220   26.2150 N   0  0  0  0  0  0  0  0  0  0  0  0
    6.3720   -1.7110   27.1740 C   0  0  0  0  0  0  0  0  0  0  0  0
    6.9860   -1.5980   28.3960 C   0  0  0  0  0  0  0  0  0  0  0  0
    7.0890   -0.4040   29.1600 C   0  0  0  0  0  0  0  0  0  0  0  0
    6.5760    0.9500   28.8250 C   0  0  0  0  0  0  0  0  0  0  0  0
    5.9050    0.8310   27.4690 C   0  0  0  0  0  0  0  0  0  0  0  0
    5.8260   -0.3540   26.7570 C   0  0  0  0  0  0  0  0  0  0  0  0
    5.1620    1.6010   26.4100 C   0  0  0  0  0  0  0  0  0  0  0  0
    4.9050    3.0260   26.8810 C   0  0  0  0  0  0  0  0  0  0  0  0
    5.3660    3.5820   28.2790 C   0  0  0  0  0  0  0  0  0  0  0  0
    6.6110    3.1670   28.7170 C   0  0  0  0  0  0  0  0  0  0  0  0
    6.6840    2.0920   29.5880 C   0  0  0  0  0  0  0  0  0  0  0  0
    5.9920   -5.1230   23.5290 C   0  0  0  0  0  0  0  0  0  0  0  0
    6.6920   -5.4490   22.3980 C   0  0  0  0  0  0  0  0  0  0  0  0
  1  2  1  0
  2  3  2  0
  2  4  1  0
  4  5  1  0
  5  6  1  0
  6  7  1  0
  7  8  1  0
  8  9  2  0
  8 10  1  0
 10 11  1  0
 11 12  2  0
 12 13  1  0
 13 14  2  0
 14 15  1  0
 11 16  1  0
 15 16  2  0
 15 17  1  0
 17 18  2  0
 18 19  1  0
 19 20  1  0
 14 21  1  0
 20 21  1  0
  7 22  1  0
  4 23  1  0
 22 23  1  0
M  END
