piperidine-amides-1291-covalent
     RDKit          3D

 22 24  0  0  0  0  0  0  0  0999 V2000
    7.1430   -3.3350   19.2920 C   0  0  0  0  0  0  0  0  0  0  0  0
    6.3560   -4.1070   20.2860 C   0  0  0  0  0  0  0  0  0  0  0  0
    5.3030   -4.6620   19.9280 O   0  0  0  0  0  0  0  0  0  0  0  0
    6.8760   -4.2240   21.5900 N   0  0  0  0  0  0  0  0  0  0  0  0
    7.7420   -3.2200   22.1540 C   0  0  0  0  0  0  0  0  0  0  0  0
    7.0180   -2.6690   23.3660 C   0  0  0  0  0  0  0  0  0  0  0  0
    6.4940   -3.8410   24.1110 C   0  0  0  0  0  0  0  0  0  0  0  0
    5.6990   -3.4020   25.2650 C   0  0  0  0  0  0  0  0  0  0  0  0
    4.4940   -3.2150   25.0630 O   0  0  0  0  0  0  0  0  0  0  0  0
    6.3110   -3.2080   26.4970 N   0  0  0  0  0  0  0  0  0  0  0  0
    6.3530   -1.9680   27.1830 C   0  0  0  0  0  0  0  0  0  0  0  0
    5.8580   -0.4980   27.4430 C   0  0  0  0  0  0  0  0  0  0  0  0
    6.8130    0.4740   27.6730 N   0  0  0  0  0  0  0  0  0  0  0  0
    6.8770   -0.7160   27.5790 N   0  0  0  0  0  0  0  0  0  0  0  0
    5.8960   -1.6880   28.3590 C   0  0  0  0  0  0  0  0  0  0  0  0
    5.5330   -3.0250   28.4050 C   0  0  0  0  0  0  0  0  0  0  0  0
    4.2470   -3.5600   28.1570 N   0  0  0  0  0  0  0  0  0  0  0  0
    3.9950   -4.8940   28.2330 C   0  0  0  0  0  0  0  0  0  0  0  0
    5.3260   -5.4900   28.6030 C   0  0  0  0  0  0  0  0  0  0  0  0
    6.6390   -4.3760   28.8020 S   0  0  0  0  0  0  0  0  0  0  0  0
    5.6510   -4.8200   23.3360 C   0  0  0  0  0  0  0  0  0  0  0  0
    6.5120   -5.3460   22.3960 C   0  0  0  0  0  0  0  0  0  0  0  0
  1  2  1  0
  2  3  2  0
  2  4  1  0
  4  5  1  0
  5  6  1  0
  6  7  1  0
  7  8  1  0
  8  9  2  0
  8 10  1  0
 10 11  1  0
 11 12  2  0
 12 13  1  0
 13 14  1  0
 11 15  1  0
 14 15  2  0
 15 16  1  0
 16 17  2  0
 17 18  1  0
 18 19  2  0
 16 20  1  0
 19 20  1  0
  7 21  1  0
  4 22  1  0
 21 22  1  0
M  END
