piperidine-amides-3917-covalent
     RDKit          3D

 23 25  0  0  0  0  0  0  0  0999 V2000
    7.1220   -3.3290   19.2820 C   0  0  0  0  0  0  0  0  0  0  0  0
    6.3780   -4.1120   20.2780 C   0  0  0  0  0  0  0  0  0  0  0  0
    5.2930   -4.6200   19.9090 O   0  0  0  0  0  0  0  0  0  0  0  0
    6.9020   -4.3320   21.5710 N   0  0  0  0  0  0  0  0  0  0  0  0
    7.6240   -3.2610   22.1760 C   0  0  0  0  0  0  0  0  0  0  0  0
    7.3640   -3.0310   23.5910 C   0  0  0  0  0  0  0  0  0  0  0  0
    6.4540   -3.9760   24.2730 C   0  0  0  0  0  0  0  0  0  0  0  0
    5.7130   -3.2790   25.3770 C   0  0  0  0  0  0  0  0  0  0  0  0
    4.4830   -3.1050   25.2660 O   0  0  0  0  0  0  0  0  0  0  0  0
    6.3740   -2.8170   26.5390 N   0  0  0  0  0  0  0  0  0  0  0  0
    6.5480   -1.4840   27.0240 C   0  0  1  0  0  0  0  0  0  0  0  0
    6.0690   -0.2890   26.3410 C   0  0  0  0  0  0  0  0  0  0  0  0
    6.3680    0.9390   27.2500 C   0  0  0  0  0  0  0  0  0  0  0  0
    7.1670    0.4570   28.3020 O   0  0  0  0  0  0  0  0  0  0  0  0
    7.2000   -0.9290   28.2520 C   0  0  0  0  0  0  0  0  0  0  0  0
    5.7580   -1.3450   28.3180 C   0  0  0  0  0  0  0  0  0  0  0  0
    5.5560    0.0600   28.8260 C   0  0  0  0  0  0  0  0  0  0  0  0
    5.7500   -0.3790   30.2700 C   0  0  0  0  0  0  0  0  0  0  0  0
    4.6170   -1.1060   30.9660 C   0  0  0  0  0  0  0  0  0  0  0  0
    4.4440   -2.4140   30.2320 C   0  0  0  0  0  0  0  0  0  0  0  0
    5.5350   -2.5630   29.1720 C   0  0  0  0  0  0  0  0  0  0  0  0
    5.5530   -4.6970   23.3230 C   0  0  0  0  0  0  0  0  0  0  0  0
    6.3740   -5.3650   22.4230 C   0  0  0  0  0  0  0  0  0  0  0  0
  1  2  1  0
  2  3  2  0
  2  4  1  0
  4  5  1  0
  5  6  1  0
  6  7  1  0
  7  8  1  0
  8  9  2  0
  8 10  1  0
 11 10  1  6
 11 12  1  0
 12 13  1  0
 13 14  1  0
 14 15  1  0
 11 16  1  0
 16 15  1  0
 16 17  1  0
 17 18  1  0
 18 19  1  0
 19 20  1  0
 16 21  1  0
 20 21  1  0
  7 22  1  0
  4 23  1  0
 22 23  1  0
M  END
