piperidine-amides-31591-covalent
     RDKit          3D

 28 31  0  0  0  0  0  0  0  0999 V2000
    7.0350   -5.2460   19.8760 C   0  0  0  0  0  0  0  0  0  0  0  0
    6.0850   -4.5100   20.5150 C   0  0  0  0  0  0  0  0  0  0  0  0
    5.1250   -4.1680   19.7680 O   0  0  0  0  0  0  0  0  0  0  0  0
    6.2910   -4.2570   21.8710 N   0  0  0  0  0  0  0  0  0  0  0  0
    6.4190   -5.5710   22.5710 C   0  0  0  0  0  0  0  0  0  0  0  0
    5.9420   -5.2490   24.0360 C   0  0  0  0  0  0  0  0  0  0  0  0
    5.9980   -3.7580   24.1130 C   0  0  0  0  0  0  0  0  0  0  0  0
    5.3370   -3.1390   25.4070 C   0  0  0  0  0  0  0  0  0  0  0  0
    4.7800   -2.0950   25.1250 O   0  0  0  0  0  0  0  0  0  0  0  0
    5.5440   -3.8920   26.3990 N   0  0  0  0  0  0  0  0  0  0  0  0
    5.4710   -4.9570   27.2100 C   0  0  0  0  0  0  0  0  0  0  0  0
    6.0210   -5.0880   28.3980 C   0  0  0  0  0  0  0  0  0  0  0  0
    6.5330   -3.8100   28.4680 C   0  0  2  0  0  0  0  0  0  0  0  0
    5.8580   -2.9680   29.4290 C   0  0  0  0  0  0  0  0  0  0  0  0
    5.5940   -1.7240   28.8780 N   0  0  0  0  0  0  0  0  0  0  0  0
    6.0640   -0.4980   29.5360 C   0  0  0  0  0  0  0  0  0  0  0  0
    7.0890    0.4360   29.2270 O   0  0  0  0  0  0  0  0  0  0  0  0
    5.3700   -0.2370   30.7270 C   0  0  0  0  0  0  0  0  0  0  0  0
    5.8890    0.9240   31.4330 C   0  0  0  0  0  0  0  0  0  0  0  0
    4.9260    0.9110   32.6490 C   0  0  0  0  0  0  0  0  0  0  0  0
    3.7790   -0.0660   32.9650 C   0  0  0  0  0  0  0  0  0  0  0  0
    3.0090    0.0810   34.1230 F   0  0  0  0  0  0  0  0  0  0  0  0
    3.5560   -1.0370   32.1040 C   0  0  0  0  0  0  0  0  0  0  0  0
    4.3250   -1.1320   31.0050 C   0  0  0  0  0  0  0  0  0  0  0  0
    5.8030   -1.8250   27.4830 C   0  0  0  0  0  0  0  0  0  0  0  0
    6.3960   -3.0620   27.2630 C   0  0  2  0  0  0  0  0  0  0  0  0
    7.2320   -3.0780   23.6690 C   0  0  0  0  0  0  0  0  0  0  0  0
    7.2880   -3.2380   22.1950 C   0  0  0  0  0  0  0  0  0  0  0  0
  1  2  1  0
  2  3  2  0
  2  4  1  0
  4  5  1  0
  5  6  1  0
  6  7  1  0
  7  8  1  0
  8  9  2  0
  8 10  1  0
 10 11  1  0
 11 12  1  0
 13 12  1  6
 13 14  1  0
 14 15  1  0
 15 16  1  0
 16 17  2  0
 16 18  1  0
 18 19  2  0
 19 20  1  0
 20 21  2  0
 21 22  1  0
 21 23  1  0
 18 24  1  0
 23 24  2  0
 15 25  1  0
 10 26  1  0
 13 26  1  0
 26 25  1  1
  7 27  1  0
  4 28  1  0
 27 28  1  0
M  END
