piperidine-amides-14224-covalent
     RDKit          3D

 24 25  0  0  0  0  0  0  0  0999 V2000
    7.1120   -3.2770   19.2030 C   0  0  0  0  0  0  0  0  0  0  0  0
    6.2600   -4.0020   20.1830 C   0  0  0  0  0  0  0  0  0  0  0  0
    5.1860   -4.5010   19.8330 O   0  0  0  0  0  0  0  0  0  0  0  0
    6.7290   -4.1340   21.4880 N   0  0  0  0  0  0  0  0  0  0  0  0
    7.5800   -3.1300   22.0660 C   0  0  0  0  0  0  0  0  0  0  0  0
    7.3820   -3.1640   23.5680 C   0  0  0  0  0  0  0  0  0  0  0  0
    6.0200   -3.6370   23.8790 C   0  0  0  0  0  0  0  0  0  0  0  0
    5.7380   -3.4910   25.3160 C   0  0  0  0  0  0  0  0  0  0  0  0
    4.6530   -2.9930   25.6180 O   0  0  0  0  0  0  0  0  0  0  0  0
    6.7050   -3.9000   26.2360 N   0  0  0  0  0  0  0  0  0  0  0  0
    6.5170   -4.4550   27.5290 C   0  0  2  0  0  0  0  0  0  0  0  0
    7.3550   -5.4030   28.0920 C   0  0  0  0  0  0  0  0  0  0  0  0
    5.1220   -5.0800   27.5700 C   0  0  0  0  0  0  0  0  0  0  0  0
    4.9920   -6.4440   27.4790 C   0  0  0  0  0  0  0  0  0  0  0  0
    3.6920   -7.1320   27.5110 C   0  0  0  0  0  0  0  0  0  0  0  0
    2.3880   -6.3610   27.6520 C   0  0  0  0  0  0  0  0  0  0  0  0
    2.6270   -4.8520   27.7450 C   0  0  0  0  0  0  0  0  0  0  0  0
    3.9320   -4.3720   27.6950 C   0  0  0  0  0  0  0  0  0  0  0  0
    4.0340   -2.9980   27.7820 O   0  0  0  0  0  0  0  0  0  0  0  0
    2.9740   -2.1700   27.3520 C   0  0  0  0  0  0  0  0  0  0  0  0
    2.3810   -2.6270   26.0240 C   0  0  0  0  0  0  0  0  0  0  0  0
    3.2720   -0.6990   27.2720 C   0  0  0  0  0  0  0  0  0  0  0  0
    5.7800   -5.0590   23.4960 C   0  0  0  0  0  0  0  0  0  0  0  0
    6.5240   -5.3750   22.2220 C   0  0  0  0  0  0  0  0  0  0  0  0
  1  2  1  0
  2  3  2  0
  2  4  1  0
  4  5  1  0
  5  6  1  0
  6  7  1  0
  7  8  1  0
  8  9  2  0
  8 10  1  0
 10 11  1  0
 11 12  1  6
 11 13  1  0
 13 14  2  0
 14 15  1  0
 15 16  2  0
 16 17  1  0
 13 18  1  0
 17 18  2  0
 18 19  1  0
 19 20  1  0
 20 21  1  0
 20 22  1  0
  7 23  1  0
  4 24  1  0
 23 24  1  0
M  END
