piperidine-amides-14502-covalent
     RDKit          3D

 23 24  0  0  0  0  0  0  0  0999 V2000
    7.0910   -3.2530   19.2010 C   0  0  0  0  0  0  0  0  0  0  0  0
    6.3340   -4.0080   20.2060 C   0  0  0  0  0  0  0  0  0  0  0  0
    5.2620   -4.5280   19.8650 O   0  0  0  0  0  0  0  0  0  0  0  0
    6.8340   -4.1820   21.5200 N   0  0  0  0  0  0  0  0  0  0  0  0
    6.5350   -5.4090   22.2010 C   0  0  0  0  0  0  0  0  0  0  0  0
    6.4940   -5.1880   23.6860 C   0  0  0  0  0  0  0  0  0  0  0  0
    6.2590   -3.7150   23.9410 C   0  0  0  0  0  0  0  0  0  0  0  0
    6.0620   -3.4760   25.3940 C   0  0  0  0  0  0  0  0  0  0  0  0
    4.9060   -3.2710   25.7700 O   0  0  0  0  0  0  0  0  0  0  0  0
    7.2070   -3.5040   26.1860 N   0  0  0  0  0  0  0  0  0  0  0  0
    7.3580   -4.3840   27.2950 C   0  0  2  0  0  0  0  0  0  0  0  0
    6.5000   -5.4880   27.3510 C   0  0  0  0  0  0  0  0  0  0  0  0
    7.0130   -3.5520   28.4420 C   0  0  0  0  0  0  0  0  0  0  0  0
    5.9940   -2.6060   28.3390 C   0  0  0  0  0  0  0  0  0  0  0  0
    6.2880   -1.6340   29.4490 C   0  0  0  0  0  0  0  0  0  0  0  0
    7.7330   -1.1500   29.6840 C   0  0  0  0  0  0  0  0  0  0  0  0
    8.0990   -0.2010   30.7510 C   0  0  0  0  0  0  0  0  0  0  0  0
    7.0290    0.3210   31.6450 C   0  0  0  0  0  0  0  0  0  0  0  0
    5.5980   -0.1990   31.3560 C   0  0  0  0  0  0  0  0  0  0  0  0
    5.1970   -1.0920   30.3690 C   0  0  0  0  0  0  0  0  0  0  0  0
    3.8270   -1.3770   30.3510 F   0  0  0  0  0  0  0  0  0  0  0  0
    7.4980   -2.9870   23.5300 C   0  0  0  0  0  0  0  0  0  0  0  0
    7.6700   -3.1300   22.0560 C   0  0  0  0  0  0  0  0  0  0  0  0
  1  2  1  0
  2  3  2  0
  2  4  1  0
  4  5  1  0
  5  6  1  0
  6  7  1  0
  7  8  1  0
  8  9  2  0
  8 10  1  0
 10 11  1  0
 11 12  1  6
 11 13  1  0
 13 14  1  0
 14 15  1  0
 15 16  2  0
 16 17  1  0
 17 18  2  0
 18 19  1  0
 15 20  1  0
 19 20  2  0
 20 21  1  0
  7 22  1  0
  4 23  1  0
 22 23  1  0
M  END
