piperidine-amides-30545-covalent
     RDKit          3D

 23 25  0  0  0  0  0  0  0  0999 V2000
    7.0380   -3.3590   19.3970 C   0  0  0  0  0  0  0  0  0  0  0  0
    6.3710   -4.2280   20.3700 C   0  0  0  0  0  0  0  0  0  0  0  0
    5.3810   -4.8780   19.9920 O   0  0  0  0  0  0  0  0  0  0  0  0
    6.8370   -4.3930   21.6960 N   0  0  0  0  0  0  0  0  0  0  0  0
    6.6900   -5.6450   22.4070 C   0  0  0  0  0  0  0  0  0  0  0  0
    6.1920   -5.2750   23.7770 C   0  0  0  0  0  0  0  0  0  0  0  0
    6.2360   -3.7960   23.9790 C   0  0  0  0  0  0  0  0  0  0  0  0
    5.8280   -3.3460   25.3470 C   0  0  0  0  0  0  0  0  0  0  0  0
    4.9410   -2.4500   25.4570 O   0  0  0  0  0  0  0  0  0  0  0  0
    6.3210   -3.8750   26.5730 N   0  0  0  0  0  0  0  0  0  0  0  0
    5.4560   -4.7220   27.4100 C   0  0  0  0  0  0  0  0  0  0  0  0
    6.4470   -5.1930   28.3880 C   0  0  0  0  0  0  0  0  0  0  0  0
    7.7420   -4.6160   27.9900 C   0  0  0  0  0  0  0  0  0  0  0  0
    7.4000   -3.3120   27.3020 C   0  0  2  0  0  0  0  0  0  0  0  0
    6.9870   -2.3490   28.4030 C   0  0  0  0  0  0  0  0  0  0  0  0
    8.0230   -1.5410   29.0890 C   0  0  0  0  0  0  0  0  0  0  0  0
    7.6740   -0.6720   30.0990 C   0  0  0  0  0  0  0  0  0  0  0  0
    6.4040   -0.4140   30.6120 C   0  0  0  0  0  0  0  0  0  0  0  0
    6.1730    0.8520   32.0360 Br  0  0  0  0  0  0  0  0  0  0  0  0
    5.2870   -1.1830   29.9770 C   0  0  0  0  0  0  0  0  0  0  0  0
    5.5390   -2.1780   28.8500 C   0  0  0  0  0  0  0  0  0  0  0  0
    7.6160   -3.3200   23.4980 C   0  0  0  0  0  0  0  0  0  0  0  0
    7.5930   -3.2700   22.2830 C   0  0  0  0  0  0  0  0  0  0  0  0
  1  2  1  0
  2  3  2  0
  2  4  1  0
  4  5  1  0
  5  6  1  0
  6  7  1  0
  7  8  1  0
  8  9  2  0
  8 10  1  0
 10 11  1  0
 11 12  1  0
 12 13  1  0
 10 14  1  0
 13 14  1  0
 14 15  1  1
 15 16  2  0
 16 17  1  0
 17 18  2  0
 18 19  1  0
 18 20  1  0
 15 21  1  0
 20 21  2  0
  7 22  1  0
  4 23  1  0
 22 23  1  0
M  END
