piperidine-amides-27515-covalent
     RDKit          3D

 24 26  0  0  0  0  0  0  0  0999 V2000
    7.1110   -3.3280   19.2780 C   0  0  0  0  0  0  0  0  0  0  0  0
    6.4240   -4.1550   20.2710 C   0  0  0  0  0  0  0  0  0  0  0  0
    5.3230   -4.6570   19.9220 O   0  0  0  0  0  0  0  0  0  0  0  0
    7.0170   -4.4140   21.5040 N   0  0  0  0  0  0  0  0  0  0  0  0
    6.6330   -5.5580   22.2870 C   0  0  0  0  0  0  0  0  0  0  0  0
    5.8300   -5.0510   23.4490 C   0  0  0  0  0  0  0  0  0  0  0  0
    6.5440   -3.9360   24.1710 C   0  0  0  0  0  0  0  0  0  0  0  0
    5.6870   -3.4370   25.2660 C   0  0  0  0  0  0  0  0  0  0  0  0
    4.5870   -2.9510   24.9400 O   0  0  0  0  0  0  0  0  0  0  0  0
    6.0040   -3.4670   26.6340 N   0  0  0  0  0  0  0  0  0  0  0  0
    6.4620   -2.2770   27.2210 C   0  0  0  0  0  0  0  0  0  0  0  0
    6.6160   -2.4460   28.8760 S   0  0  0  0  0  0  0  0  0  0  0  0
    6.1800   -4.0830   28.6420 C   0  0  0  0  0  0  0  0  0  0  0  0
    5.2150   -4.1420   27.6260 C   0  0  1  0  0  0  0  0  0  0  0  0
    3.9010   -3.7450   27.8190 C   0  0  0  0  0  0  0  0  0  0  0  0
    3.2930   -3.4850   26.6870 O   0  0  0  0  0  0  0  0  0  0  0  0
    3.3330   -3.6480   29.0400 N   0  0  0  0  0  0  0  0  0  0  0  0
    2.6380   -4.6390   29.5960 C   0  0  0  0  0  0  0  0  0  0  0  0
    1.2820   -4.3930   29.4820 C   0  0  0  0  0  0  0  0  0  0  0  0
    0.9280   -3.1880   29.5510 O   0  0  0  0  0  0  0  0  0  0  0  0
    1.8360   -2.2260   30.0520 C   0  0  0  0  0  0  0  0  0  0  0  0
    3.2920   -2.5190   29.7570 C   0  0  0  0  0  0  0  0  0  0  0  0
    6.8780   -2.7910   23.2880 C   0  0  0  0  0  0  0  0  0  0  0  0
    7.6860   -3.2670   22.1210 C   0  0  0  0  0  0  0  0  0  0  0  0
  1  2  1  0
  2  3  2  0
  2  4  1  0
  4  5  1  0
  5  6  1  0
  6  7  1  0
  7  8  1  0
  8  9  2  0
  8 10  1  0
 10 11  1  0
 11 12  1  0
 12 13  1  0
 10 14  1  0
 13 14  1  0
 14 15  1  1
 15 16  2  0
 15 17  1  0
 17 18  1  0
 18 19  1  0
 19 20  1  0
 20 21  1  0
 17 22  1  0
 21 22  1  0
  7 23  1  0
  4 24  1  0
 23 24  1  0
M  END
