piperidine-amides-23900-covalent
     RDKit          3D

 24 25  0  0  0  0  0  0  0  0999 V2000
    7.0770   -3.3100   19.3350 C   0  0  0  0  0  0  0  0  0  0  0  0
    6.3940   -4.1280   20.3550 C   0  0  0  0  0  0  0  0  0  0  0  0
    5.3770   -4.7590   19.9660 O   0  0  0  0  0  0  0  0  0  0  0  0
    6.8860   -4.2390   21.6920 N   0  0  0  0  0  0  0  0  0  0  0  0
    6.5930   -5.4280   22.4210 C   0  0  0  0  0  0  0  0  0  0  0  0
    6.0390   -5.1410   23.7330 C   0  0  0  0  0  0  0  0  0  0  0  0
    6.0800   -3.7040   24.0220 C   0  0  0  0  0  0  0  0  0  0  0  0
    5.5200   -3.3800   25.3930 C   0  0  0  0  0  0  0  0  0  0  0  0
    4.2820   -3.3570   25.5000 O   0  0  0  0  0  0  0  0  0  0  0  0
    6.2720   -3.0950   26.5620 N   0  0  0  0  0  0  0  0  0  0  0  0
    6.1490   -3.7910   27.8120 C   0  0  0  0  0  0  0  0  0  0  0  0
    6.1570   -5.2590   27.9020 C   0  0  0  0  0  0  0  0  0  0  0  0
    4.8530   -5.7660   28.5360 C   0  0  0  0  0  0  0  0  0  0  0  0
    4.7680   -7.1440   28.5380 C   0  0  0  0  0  0  0  0  0  0  0  0
    6.5450   -1.6550   26.7510 C   0  0  0  0  0  0  0  0  0  0  0  0
    5.9670   -1.3160   28.0870 C   0  0  0  0  0  0  0  0  0  0  0  0
    7.2200   -1.0840   28.8990 C   0  0  0  0  0  0  0  0  0  0  0  0
    7.1870   -0.7060   30.3450 C   0  0  0  0  0  0  0  0  0  0  0  0
    5.8020   -0.5610   30.9800 C   0  0  0  0  0  0  0  0  0  0  0  0
    5.6030   -0.2520   32.1820 O   0  0  0  0  0  0  0  0  0  0  0  0
    4.5520   -0.8150   30.0880 C   0  0  0  0  0  0  0  0  0  0  0  0
    4.7180   -1.1890   28.6480 C   0  0  0  0  0  0  0  0  0  0  0  0
    7.4120   -3.1030   23.7020 C   0  0  0  0  0  0  0  0  0  0  0  0
    7.6060   -3.1370   22.3120 C   0  0  0  0  0  0  0  0  0  0  0  0
  1  2  1  0
  2  3  2  0
  2  4  1  0
  4  5  1  0
  5  6  1  0
  6  7  1  0
  7  8  1  0
  8  9  2  0
  8 10  1  0
 10 11  1  0
 11 12  1  0
 12 13  1  0
 13 14  1  0
 10 15  1  0
 15 16  1  0
 16 17  2  0
 17 18  1  0
 18 19  2  0
 19 20  1  0
 19 21  1  0
 16 22  1  0
 21 22  2  0
  7 23  1  0
  4 24  1  0
 23 24  1  0
M  END
