piperidine-amides-13424-covalent
     RDKit          3D

 21 22  0  0  0  0  0  0  0  0999 V2000
    7.0740   -3.2820   19.2800 C   0  0  0  0  0  0  0  0  0  0  0  0
    6.3220   -4.0780   20.2940 C   0  0  0  0  0  0  0  0  0  0  0  0
    5.2970   -4.6790   19.9280 O   0  0  0  0  0  0  0  0  0  0  0  0
    6.7980   -4.1750   21.6240 N   0  0  0  0  0  0  0  0  0  0  0  0
    6.6940   -5.4060   22.3780 C   0  0  0  0  0  0  0  0  0  0  0  0
    6.0550   -5.0980   23.7420 C   0  0  0  0  0  0  0  0  0  0  0  0
    6.0920   -3.6210   23.9330 C   0  0  0  0  0  0  0  0  0  0  0  0
    5.6140   -3.1690   25.2630 C   0  0  0  0  0  0  0  0  0  0  0  0
    4.4430   -2.7720   25.3020 O   0  0  0  0  0  0  0  0  0  0  0  0
    6.4350   -3.1960   26.3960 N   0  0  0  0  0  0  0  0  0  0  0  0
    6.1670   -3.8670   27.6260 C   0  0  0  0  0  0  0  0  0  0  0  0
    6.0740   -5.2380   27.7600 C   0  0  0  0  0  0  0  0  0  0  0  0
    4.9260   -5.9580   27.4040 C   0  0  0  0  0  0  0  0  0  0  0  0
    3.6710   -5.5810   27.8430 C   0  0  2  0  0  0  0  0  0  0  0  0
    3.7230   -5.3600   29.3130 C   0  0  0  0  0  0  0  0  0  0  0  0
    2.8980   -6.3620   30.1270 C   0  0  0  0  0  0  0  0  0  0  0  0
    3.2020   -7.6630   29.3830 C   0  0  0  0  0  0  0  0  0  0  0  0
    2.9220   -7.5860   28.0310 C   0  0  0  0  0  0  0  0  0  0  0  0
    2.5700   -6.3000   27.6900 O   0  0  0  0  0  0  0  0  0  0  0  0
    7.4050   -3.0120   23.6080 C   0  0  0  0  0  0  0  0  0  0  0  0
    7.6870   -3.1340   22.1250 C   0  0  0  0  0  0  0  0  0  0  0  0
  1  2  1  0
  2  3  2  0
  2  4  1  0
  4  5  1  0
  5  6  1  0
  6  7  1  0
  7  8  1  0
  8  9  2  0
  8 10  1  0
 10 11  1  0
 11 12  1  0
 12 13  3  0
 14 13  1  1
 14 15  1  0
 15 16  1  0
 16 17  1  0
 17 18  1  0
 14 19  1  0
 18 19  1  0
  7 20  1  0
  4 21  1  0
 20 21  1  0
M  END
