piperidine-amides-27037-covalent
     RDKit          3D

 21 23  0  0  0  0  0  0  0  0999 V2000
    7.0940   -3.3400   19.3220 C   0  0  0  0  0  0  0  0  0  0  0  0
    6.3860   -4.1400   20.3280 C   0  0  0  0  0  0  0  0  0  0  0  0
    5.3390   -4.7270   19.9460 O   0  0  0  0  0  0  0  0  0  0  0  0
    6.8960   -4.2600   21.6220 N   0  0  0  0  0  0  0  0  0  0  0  0
    6.7100   -5.4840   22.3810 C   0  0  0  0  0  0  0  0  0  0  0  0
    6.2060   -5.1300   23.7520 C   0  0  0  0  0  0  0  0  0  0  0  0
    6.3240   -3.6550   23.9970 C   0  0  0  0  0  0  0  0  0  0  0  0
    6.0280   -3.2910   25.3910 C   0  0  0  0  0  0  0  0  0  0  0  0
    4.8680   -2.8750   25.6230 O   0  0  0  0  0  0  0  0  0  0  0  0
    6.9230   -3.3840   26.4770 N   0  0  0  0  0  0  0  0  0  0  0  0
    6.9970   -2.1670   27.2270 C   0  0  0  0  0  0  0  0  0  0  0  0
    6.2250   -2.6230   28.3550 C   0  0  0  0  0  0  0  0  0  0  0  0
    6.2800   -3.9320   28.3590 C   0  0  0  0  0  0  0  0  0  0  0  0
    5.8620   -4.5420   29.5090 N   0  0  0  0  0  0  0  0  0  0  0  0
    5.8630   -5.8490   29.6780 C   0  0  0  0  0  0  0  0  0  0  0  0
    6.3110   -6.5440   28.6470 C   0  0  0  0  0  0  0  0  0  0  0  0
    5.8770   -7.8500   29.9000 Br  0  0  0  0  0  0  0  0  0  0  0  0
    6.3770   -5.2370   28.3060 C   0  0  0  0  0  0  0  0  0  0  0  0
    6.7630   -4.6580   27.1940 C   0  0  0  0  0  0  0  0  0  0  0  0
    7.7080   -3.1670   23.6230 C   0  0  0  0  0  0  0  0  0  0  0  0
    7.7890   -3.2180   22.1100 C   0  0  0  0  0  0  0  0  0  0  0  0
  1  2  1  0
  2  3  2  0
  2  4  1  0
  4  5  1  0
  5  6  1  0
  6  7  1  0
  7  8  1  0
  8  9  2  0
  8 10  1  0
 10 11  1  0
 11 12  1  0
 12 13  1  0
 13 14  1  0
 14 15  2  0
 15 16  1  0
 16 17  1  0
 16 18  2  0
 10 19  1  0
 13 19  2  0
 18 19  1  0
  7 20  1  0
  4 21  1  0
 20 21  1  0
M  END
