piperidine-amides-29332-covalent
     RDKit          3D

 27 30  0  0  0  0  0  0  0  0999 V2000
    7.0630   -3.3560   19.3780 C   0  0  0  0  0  0  0  0  0  0  0  0
    6.4080   -4.2310   20.3440 C   0  0  0  0  0  0  0  0  0  0  0  0
    5.3760   -4.8240   19.9790 O   0  0  0  0  0  0  0  0  0  0  0  0
    6.9710   -4.4390   21.6330 N   0  0  0  0  0  0  0  0  0  0  0  0
    7.6580   -3.3600   22.2840 C   0  0  0  0  0  0  0  0  0  0  0  0
    6.8160   -2.8460   23.4170 C   0  0  0  0  0  0  0  0  0  0  0  0
    6.5080   -4.0140   24.3390 C   0  0  0  0  0  0  0  0  0  0  0  0
    5.5880   -3.5700   25.4460 C   0  0  0  0  0  0  0  0  0  0  0  0
    4.7640   -2.7070   25.1610 O   0  0  0  0  0  0  0  0  0  0  0  0
    5.7240   -4.1670   26.6990 N   0  0  0  0  0  0  0  0  0  0  0  0
    6.9580   -4.5710   27.0660 C   0  0  0  0  0  0  0  0  0  0  0  0
    7.0580   -5.5570   28.0080 C   0  0  0  0  0  0  0  0  0  0  0  0
    6.1200   -5.6140   29.0090 C   0  0  0  0  0  0  0  0  0  0  0  0
    6.0580   -6.5430   30.0700 N   0  0  0  0  0  0  0  0  0  0  0  0
    5.0660   -6.4500   30.9460 N   0  0  0  0  0  0  0  0  0  0  0  0
    4.0960   -5.5120   30.8870 C   0  0  0  0  0  0  0  0  0  0  0  0
    2.9740   -5.3900   31.8680 C   0  0  0  0  0  0  0  0  0  0  0  0
    1.4740   -5.3130   31.6640 C   0  0  0  0  0  0  0  0  0  0  0  0
    0.6990   -5.2000   32.8620 N   0  0  0  0  0  0  0  0  0  0  0  0
    1.6320   -5.2000   33.8250 N   0  0  0  0  0  0  0  0  0  0  0  0
    1.3110   -5.1010   35.2510 C   0  0  0  0  0  0  0  0  0  0  0  0
    3.0070   -5.3090   33.3260 C   0  0  0  0  0  0  0  0  0  0  0  0
    4.1080   -4.5550   29.8460 C   0  0  0  0  0  0  0  0  0  0  0  0
    5.0670   -4.5220   28.8660 C   0  0  0  0  0  0  0  0  0  0  0  0
    5.0910   -3.5850   27.8270 C   0  0  0  0  0  0  0  0  0  0  0  0
    5.8470   -5.1550   23.6310 C   0  0  0  0  0  0  0  0  0  0  0  0
    6.6070   -5.5840   22.4080 C   0  0  0  0  0  0  0  0  0  0  0  0
  1  2  1  0
  2  3  2  0
  2  4  1  0
  4  5  1  0
  5  6  1  0
  6  7  1  0
  7  8  1  0
  8  9  2  0
  8 10  1  0
 10 11  1  0
 11 12  1  0
 12 13  1  0
 13 14  2  0
 14 15  1  0
 15 16  2  0
 16 17  1  0
 17 18  1  0
 18 19  2  0
 19 20  1  0
 20 21  1  0
 17 22  2  0
 20 22  1  0
 16 23  1  0
 13 24  1  0
 23 24  2  0
 10 25  1  0
 24 25  1  0
  7 26  1  0
  4 27  1  0
 26 27  1  0
M  END
