piperidine-amides-31895-covalent
     RDKit          3D

 24 27  0  0  0  0  0  0  0  0999 V2000
    7.1820   -3.2960   19.3010 C   0  0  0  0  0  0  0  0  0  0  0  0
    6.4300   -4.0720   20.2540 C   0  0  0  0  0  0  0  0  0  0  0  0
    5.3360   -4.6150   19.9070 O   0  0  0  0  0  0  0  0  0  0  0  0
    6.9270   -4.2740   21.5390 N   0  0  0  0  0  0  0  0  0  0  0  0
    6.6930   -5.5830   22.1630 C   0  0  0  0  0  0  0  0  0  0  0  0
    5.6760   -5.0810   23.2290 C   0  0  0  0  0  0  0  0  0  0  0  0
    6.4820   -4.1720   24.1280 C   0  0  0  0  0  0  0  0  0  0  0  0
    5.5540   -3.1630   24.9060 C   0  0  0  0  0  0  0  0  0  0  0  0
    4.6300   -2.7710   24.2230 O   0  0  0  0  0  0  0  0  0  0  0  0
    5.9960   -3.0180   26.0690 N   0  0  0  0  0  0  0  0  0  0  0  0
    6.4420   -2.4860   27.2410 C   0  0  0  0  0  0  0  0  0  0  0  0
    6.5400   -3.0620   28.4800 C   0  0  0  0  0  0  0  0  0  0  0  0
    5.3210   -3.0020   29.1260 C   0  0  0  0  0  0  0  0  0  0  0  0
    4.9140   -4.3860   29.0710 C   0  0  0  0  0  0  0  0  0  0  0  0
    6.4720   -4.5820   28.8160 C   0  0  0  0  0  0  0  0  0  0  0  0
    5.9680   -4.3830   28.0430 C   0  0  0  0  0  0  0  0  0  0  0  0
    5.8300   -5.4030   29.0440 C   0  0  0  0  0  0  0  0  0  0  0  0
    5.1770   -6.4700   28.1580 C   0  0  0  0  0  0  0  0  0  0  0  0
    4.8170   -7.9410   29.2670 Br  0  0  0  0  0  0  0  0  0  0  0  0
    4.8440   -6.3950   26.6490 C   0  0  0  0  0  0  0  0  0  0  0  0
    5.1450   -5.2660   26.0440 C   0  0  0  0  0  0  0  0  0  0  0  0
    5.6970   -4.2630   26.7300 C   0  0  0  0  0  0  0  0  0  0  0  0
    7.7710   -3.5900   23.5630 C   0  0  0  0  0  0  0  0  0  0  0  0
    7.6170   -3.2320   22.2520 C   0  0  0  0  0  0  0  0  0  0  0  0
  1  2  1  0
  2  3  2  0
  2  4  1  0
  4  5  1  0
  5  6  1  0
  6  7  1  0
  7  8  1  0
  8  9  2  0
  8 10  1  0
 10 11  1  0
 12 11  1  0
 12 13  1  0
 13 14  1  0
 12 15  1  0
 14 15  1  0
 12 16  1  0
 16 17  1  0
 17 18  2  0
 18 19  1  0
 18 20  1  0
 20 21  2  0
 10 22  1  0
 16 22  2  0
 21 22  1  0
  7 23  1  0
  4 24  1  0
 23 24  1  0
M  END
