piperidine-amides-30816-covalent
     RDKit          3D

 27 28  0  0  0  0  0  0  0  0999 V2000
    7.1150   -3.2970   19.2790 C   0  0  0  0  0  0  0  0  0  0  0  0
    6.3220   -4.0290   20.2710 C   0  0  0  0  0  0  0  0  0  0  0  0
    5.2720   -4.5820   19.9000 O   0  0  0  0  0  0  0  0  0  0  0  0
    6.7410   -4.1720   21.6090 N   0  0  0  0  0  0  0  0  0  0  0  0
    6.6170   -5.4460   22.2830 C   0  0  0  0  0  0  0  0  0  0  0  0
    6.1960   -5.1590   23.6980 C   0  0  0  0  0  0  0  0  0  0  0  0
    6.1080   -3.6860   23.9610 C   0  0  0  0  0  0  0  0  0  0  0  0
    5.5820   -3.3530   25.3140 C   0  0  0  0  0  0  0  0  0  0  0  0
    4.3360   -3.2960   25.5070 O   0  0  0  0  0  0  0  0  0  0  0  0
    6.4100   -3.0380   26.4150 N   0  0  0  0  0  0  0  0  0  0  0  0
    6.9000   -1.6440   26.4510 C   0  0  0  0  0  0  0  0  0  0  0  0
    6.2000   -3.6240   27.7720 C   0  0  0  0  0  0  0  0  0  0  0  0
    5.7740   -5.0490   27.9120 C   0  0  0  0  0  0  0  0  0  0  0  0
    5.8820   -5.7950   26.6150 C   0  0  0  0  0  0  0  0  0  0  0  0
    6.5450   -5.8650   28.8990 C   0  0  0  0  0  0  0  0  0  0  0  0
    4.3310   -5.4140   28.3790 C   0  0  0  0  0  0  0  0  0  0  0  0
    3.6750   -6.1110   27.3220 N   0  0  0  0  0  0  0  0  0  0  0  0
    3.0320   -5.3550   26.4100 C   0  0  0  0  0  0  0  0  0  0  0  0
    3.0530   -7.3880   27.6250 C   0  0  0  0  0  0  0  0  0  0  0  0
    1.5450   -7.2040   27.6080 C   0  0  0  0  0  0  0  0  0  0  0  0
    0.7760   -7.9900   26.7140 N   0  0  0  0  0  0  0  0  0  0  0  0
    1.3550   -8.9920   25.8670 C   0  0  0  0  0  0  0  0  0  0  0  0
    0.3490   -8.8940   24.8730 C   0  0  0  0  0  0  0  0  0  0  0  0
   -0.5850   -8.2360   24.7830 C   0  0  0  0  0  0  0  0  0  0  0  0
   -0.3930   -7.4760   26.1190 C   0  0  0  0  0  0  0  0  0  0  0  0
    7.4030   -2.9920   23.6250 C   0  0  0  0  0  0  0  0  0  0  0  0
    7.6640   -3.1860   22.1320 C   0  0  0  0  0  0  0  0  0  0  0  0
  1  2  1  0
  2  3  2  0
  2  4  1  0
  4  5  1  0
  5  6  1  0
  6  7  1  0
  7  8  1  0
  8  9  2  0
  8 10  1  0
 10 11  1  0
 10 12  1  0
 13 12  1  0
 13 14  1  0
 13 15  1  0
 13 16  1  0
 16 17  1  0
 17 18  1  0
 17 19  1  0
 19 20  1  0
 20 21  1  0
 21 22  1  0
 22 23  1  0
 23 24  1  0
 21 25  1  0
 24 25  1  0
  7 26  1  0
  4 27  1  0
 26 27  1  0
M  END
