piperidine-amides-26194-covalent
     RDKit          3D

 25 26  0  0  0  0  0  0  0  0999 V2000
    7.0350   -3.3480   19.3790 C   0  0  0  0  0  0  0  0  0  0  0  0
    6.3860   -4.2030   20.3800 C   0  0  0  0  0  0  0  0  0  0  0  0
    5.4200   -4.8940   20.0060 O   0  0  0  0  0  0  0  0  0  0  0  0
    6.8440   -4.2980   21.7190 N   0  0  0  0  0  0  0  0  0  0  0  0
    6.6790   -5.5250   22.4860 C   0  0  0  0  0  0  0  0  0  0  0  0
    6.1400   -5.1630   23.8640 C   0  0  0  0  0  0  0  0  0  0  0  0
    6.0790   -3.6830   24.0760 C   0  0  0  0  0  0  0  0  0  0  0  0
    5.5770   -3.2540   25.4280 C   0  0  0  0  0  0  0  0  0  0  0  0
    4.3510   -2.9550   25.5180 O   0  0  0  0  0  0  0  0  0  0  0  0
    6.3050   -3.1160   26.6520 N   0  0  0  0  0  0  0  0  0  0  0  0
    6.1520   -4.1800   27.6960 C   0  0  0  0  0  0  0  0  0  0  0  0
    5.7040   -5.4860   27.1420 C   0  0  0  0  0  0  0  0  0  0  0  0
    5.0070   -6.3670   28.1010 C   0  0  0  0  0  0  0  0  0  0  0  0
    3.8420   -6.5830   27.7160 O   0  0  0  0  0  0  0  0  0  0  0  0
    6.3680   -1.8050   27.2210 C   0  0  0  0  0  0  0  0  0  0  0  0
    5.7350   -0.5960   26.5350 C   0  0  0  0  0  0  0  0  0  0  0  0
    5.8560    0.7010   27.2400 C   0  0  0  0  0  0  0  0  0  0  0  0
    6.5300    0.6100   28.4150 C   0  0  0  0  0  0  0  0  0  0  0  0
    6.7860    1.6870   29.2730 C   0  0  0  0  0  0  0  0  0  0  0  0
    5.6030    2.1000   30.1230 C   0  0  0  0  0  0  0  0  0  0  0  0
    7.1470    2.9540   28.5670 C   0  0  0  0  0  0  0  0  0  0  0  0
    7.0780   -0.5210   28.9700 C   0  0  0  0  0  0  0  0  0  0  0  0
    7.0100   -1.6050   28.4440 C   0  0  0  0  0  0  0  0  0  0  0  0
    7.2800   -2.9600   23.6430 C   0  0  0  0  0  0  0  0  0  0  0  0
    7.6270   -3.2550   22.3390 C   0  0  0  0  0  0  0  0  0  0  0  0
  1  2  1  0
  2  3  2  0
  2  4  1  0
  4  5  1  0
  5  6  1  0
  6  7  1  0
  7  8  1  0
  8  9  2  0
  8 10  1  0
 10 11  1  0
 11 12  1  0
 12 13  1  0
 13 14  1  0
 10 15  1  0
 15 16  2  0
 16 17  1  0
 17 18  2  0
 18 19  1  0
 19 20  1  0
 19 21  1  0
 18 22  1  0
 15 23  1  0
 22 23  2  0
  7 24  1  0
  4 25  1  0
 24 25  1  0
M  END
