piperidine-amides-796-covalent
     RDKit          3D

 25 27  0  0  0  0  0  0  0  0999 V2000
    7.2020   -3.2770   19.2980 C   0  0  0  0  0  0  0  0  0  0  0  0
    6.4390   -4.0480   20.2440 C   0  0  0  0  0  0  0  0  0  0  0  0
    5.3290   -4.5520   19.8890 O   0  0  0  0  0  0  0  0  0  0  0  0
    6.9380   -4.3020   21.5270 N   0  0  0  0  0  0  0  0  0  0  0  0
    6.5490   -5.5630   22.1840 C   0  0  0  0  0  0  0  0  0  0  0  0
    5.4650   -4.9790   23.1600 C   0  0  0  0  0  0  0  0  0  0  0  0
    6.2110   -3.9880   24.0170 C   0  0  0  0  0  0  0  0  0  0  0  0
    5.3100   -3.4970   25.2200 C   0  0  0  0  0  0  0  0  0  0  0  0
    4.3210   -2.8840   24.8420 O   0  0  0  0  0  0  0  0  0  0  0  0
    5.8950   -3.8890   26.2540 N   0  0  0  0  0  0  0  0  0  0  0  0
    6.5940   -4.2820   27.3200 C   0  0  2  0  0  0  0  0  0  0  0  0
    6.8090   -5.3660   28.1230 C   0  0  0  0  0  0  0  0  0  0  0  0
    5.6580   -6.1470   28.3640 C   0  0  0  0  0  0  0  0  0  0  0  0
    4.6750   -6.5530   27.3480 C   0  0  0  0  0  0  0  0  0  0  0  0
    3.5040   -7.4070   27.8560 C   0  0  0  0  0  0  0  0  0  0  0  0
    3.4660   -7.7290   29.2220 C   0  0  0  0  0  0  0  0  0  0  0  0
    4.2370   -7.4890   30.3650 C   0  0  0  0  0  0  0  0  0  0  0  0
    5.3490   -6.6460   29.7440 C   0  0  0  0  0  0  0  0  0  0  0  0
    6.4410   -3.0110   28.2000 C   0  0  0  0  0  0  0  0  0  0  0  0
    5.8290   -3.1330   29.4830 N   0  0  0  0  0  0  0  0  0  0  0  0
    5.9600   -1.7780   29.7660 C   0  0  0  0  0  0  0  0  0  0  0  0
    6.4700   -0.9570   28.9940 O   0  0  0  0  0  0  0  0  0  0  0  0
    6.7980   -1.7220   27.9390 N   0  0  0  0  0  0  0  0  0  0  0  0
    6.8750   -2.8360   23.2780 C   0  0  0  0  0  0  0  0  0  0  0  0
    7.6370   -3.2760   22.2540 C   0  0  0  0  0  0  0  0  0  0  0  0
  1  2  1  0
  2  3  2  0
  2  4  1  0
  4  5  1  0
  5  6  1  0
  6  7  1  0
  7  8  1  0
  8  9  2  0
  8 10  1  0
 10 11  1  0
 11 12  1  1
 12 13  1  0
 13 14  2  0
 14 15  1  0
 15 16  2  0
 16 17  1  0
 13 18  1  0
 17 18  2  0
 11 19  1  0
 19 20  1  0
 20 21  2  0
 21 22  1  0
 19 23  2  0
 22 23  1  0
  7 24  1  0
  4 25  1  0
 24 25  1  0
M  END
