piperidine-amides-15264-covalent
     RDKit          3D

 17 17  0  0  0  0  0  0  0  0999 V2000
    7.0820   -3.2790   19.2150 C   0  0  0  0  0  0  0  0  0  0  0  0
    6.3300   -4.0460   20.2230 C   0  0  0  0  0  0  0  0  0  0  0  0
    5.2720   -4.6250   19.9070 O   0  0  0  0  0  0  0  0  0  0  0  0
    6.8070   -4.1810   21.5340 N   0  0  0  0  0  0  0  0  0  0  0  0
    7.6260   -3.1450   22.1390 C   0  0  0  0  0  0  0  0  0  0  0  0
    6.8440   -2.6110   23.3380 C   0  0  0  0  0  0  0  0  0  0  0  0
    6.5170   -3.8240   24.1710 C   0  0  0  0  0  0  0  0  0  0  0  0
    5.7420   -3.4310   25.3690 C   0  0  0  0  0  0  0  0  0  0  0  0
    4.6530   -2.8440   25.1980 O   0  0  0  0  0  0  0  0  0  0  0  0
    6.2260   -3.7200   26.6710 N   0  0  0  0  0  0  0  0  0  0  0  0
    6.1120   -5.0570   27.2080 C   0  0  2  0  0  0  0  0  0  0  0  0
    4.7010   -5.5070   27.0820 C   0  0  0  0  0  0  0  0  0  0  0  0
    6.5230   -5.1030   28.6220 C   0  0  0  0  0  0  0  0  0  0  0  0
    6.5890   -6.2970   29.2840 C   0  0  0  0  0  0  0  0  0  0  0  0
    5.5440   -6.5250   30.2230 N   0  0  0  0  0  0  0  0  0  0  0  0
    5.7400   -4.8640   23.4250 C   0  0  0  0  0  0  0  0  0  0  0  0
    6.4660   -5.3300   22.3510 C   0  0  0  0  0  0  0  0  0  0  0  0
  1  2  1  0
  2  3  2  0
  2  4  1  0
  4  5  1  0
  5  6  1  0
  6  7  1  0
  7  8  1  0
  8  9  2  0
  8 10  1  0
 10 11  1  0
 11 12  1  1
 11 13  1  0
 13 14  1  0
 14 15  3  0
  7 16  1  0
  4 17  1  0
 16 17  1  0
M  END
