piperidine-amides-3350-covalent
     RDKit          3D

 21 22  0  0  0  0  0  0  0  0999 V2000
    7.0640   -3.3410   19.2790 C   0  0  0  0  0  0  0  0  0  0  0  0
    6.3590   -4.1510   20.2600 C   0  0  0  0  0  0  0  0  0  0  0  0
    5.3270   -4.7380   19.9510 O   0  0  0  0  0  0  0  0  0  0  0  0
    6.9060   -4.3150   21.5730 N   0  0  0  0  0  0  0  0  0  0  0  0
    6.5620   -5.4650   22.3630 C   0  0  0  0  0  0  0  0  0  0  0  0
    5.8170   -5.0210   23.5900 C   0  0  0  0  0  0  0  0  0  0  0  0
    6.5760   -3.8610   24.2130 C   0  0  0  0  0  0  0  0  0  0  0  0
    5.7820   -3.2900   25.3290 C   0  0  0  0  0  0  0  0  0  0  0  0
    4.5640   -3.0670   25.2150 O   0  0  0  0  0  0  0  0  0  0  0  0
    6.4370   -3.0010   26.5480 N   0  0  0  0  0  0  0  0  0  0  0  0
    5.8940   -2.0270   27.4620 C   0  0  0  0  0  0  0  0  0  0  0  0
    4.3890   -2.0110   27.6210 C   0  0  0  0  0  0  0  0  0  0  0  0
    3.8860   -3.1500   28.2220 O   0  0  0  0  0  0  0  0  0  0  0  0
    3.4780   -1.0750   27.2900 N   0  0  0  0  0  0  0  0  0  0  0  0
    2.8270   -1.4530   26.1700 C   0  0  0  0  0  0  0  0  0  0  0  0
    2.6720   -0.5770   28.2800 O   0  0  0  0  0  0  0  0  0  0  0  0
    1.9970    0.5430   27.8110 C   0  0  0  0  0  0  0  0  0  0  0  0
    6.8220   -0.8220   27.7960 C   0  0  0  0  0  0  0  0  0  0  0  0
    6.1820   -0.6800   26.6910 C   0  0  0  0  0  0  0  0  0  0  0  0
    6.9560   -2.7600   23.2660 C   0  0  0  0  0  0  0  0  0  0  0  0
    7.6960   -3.2730   22.2290 C   0  0  0  0  0  0  0  0  0  0  0  0
  1  2  1  0
  2  3  2  0
  2  4  1  0
  4  5  1  0
  5  6  1  0
  6  7  1  0
  7  8  1  0
  8  9  2  0
  8 10  1  0
 10 11  1  0
 11 12  1  0
 12 13  2  0
 12 14  1  0
 14 15  1  0
 14 16  1  0
 16 17  1  0
 11 18  1  0
 11 19  1  0
 18 19  1  0
  7 20  1  0
  4 21  1  0
 20 21  1  0
M  END
