piperidine-amides-1475-covalent
     RDKit          3D

 21 23  0  0  0  0  0  0  0  0999 V2000
    7.1030   -3.3290   19.3130 C   0  0  0  0  0  0  0  0  0  0  0  0
    6.4110   -4.1990   20.3020 C   0  0  0  0  0  0  0  0  0  0  0  0
    5.3580   -4.7610   19.9630 O   0  0  0  0  0  0  0  0  0  0  0  0
    6.9890   -4.4210   21.5730 N   0  0  0  0  0  0  0  0  0  0  0  0
    6.5830   -5.5530   22.3550 C   0  0  0  0  0  0  0  0  0  0  0  0
    5.7370   -4.9690   23.4890 C   0  0  0  0  0  0  0  0  0  0  0  0
    6.5300   -3.8800   24.1480 C   0  0  0  0  0  0  0  0  0  0  0  0
    5.8460   -3.3310   25.3400 C   0  0  0  0  0  0  0  0  0  0  0  0
    4.6120   -3.4160   25.3600 O   0  0  0  0  0  0  0  0  0  0  0  0
    6.5870   -2.7450   26.3610 N   0  0  0  0  0  0  0  0  0  0  0  0
    6.1930   -1.6530   27.1730 C   0  0  0  0  0  0  0  0  0  0  0  0
    6.1410   -0.3330   26.7410 C   0  0  0  0  0  0  0  0  0  0  0  0
    5.7420    0.7120   27.5820 C   0  0  0  0  0  0  0  0  0  0  0  0
    5.3910    0.3840   28.8510 C   0  0  0  0  0  0  0  0  0  0  0  0
    4.9190    1.1390   30.0370 C   0  0  0  0  0  0  0  0  0  0  0  0
    4.7050    0.2530   31.1170 N   0  0  0  0  0  0  0  0  0  0  0  0
    5.0500   -1.0400   30.5730 C   0  0  0  0  0  0  0  0  0  0  0  0
    5.4390   -0.9410   29.2950 N   0  0  0  0  0  0  0  0  0  0  0  0
    5.8230   -1.9630   28.5110 C   0  0  0  0  0  0  0  0  0  0  0  0
    6.8200   -2.7270   23.1850 C   0  0  0  0  0  0  0  0  0  0  0  0
    7.7090   -3.3280   22.1750 C   0  0  0  0  0  0  0  0  0  0  0  0
  1  2  1  0
  2  3  2  0
  2  4  1  0
  4  5  1  0
  5  6  1  0
  6  7  1  0
  7  8  1  0
  8  9  2  0
  8 10  1  0
 10 11  1  0
 11 12  1  0
 12 13  2  0
 13 14  1  0
 14 15  2  0
 15 16  1  0
 16 17  2  0
 14 18  1  0
 17 18  1  0
 11 19  2  0
 18 19  1  0
  7 20  1  0
  4 21  1  0
 20 21  1  0
M  END
