piperidine-amides-17216-covalent
     RDKit          3D

 20 21  0  0  0  0  0  0  0  0999 V2000
    7.0870   -3.3690   19.3150 C   0  0  0  0  0  0  0  0  0  0  0  0
    6.4400   -4.2230   20.3220 C   0  0  0  0  0  0  0  0  0  0  0  0
    5.3770   -4.7910   19.9720 O   0  0  0  0  0  0  0  0  0  0  0  0
    7.0270   -4.4460   21.5950 N   0  0  0  0  0  0  0  0  0  0  0  0
    6.5530   -5.5290   22.3690 C   0  0  0  0  0  0  0  0  0  0  0  0
    5.9180   -5.1410   23.6300 C   0  0  0  0  0  0  0  0  0  0  0  0
    6.3620   -3.8690   24.2630 C   0  0  0  0  0  0  0  0  0  0  0  0
    5.2930   -3.3710   25.1910 C   0  0  0  0  0  0  0  0  0  0  0  0
    4.3110   -2.8010   24.6960 O   0  0  0  0  0  0  0  0  0  0  0  0
    5.3470   -3.5140   26.5920 N   0  0  0  0  0  0  0  0  0  0  0  0
    6.4440   -3.2190   27.3520 C   0  0  0  0  0  0  0  0  0  0  0  0
    6.7970   -4.1510   28.4060 C   0  0  0  0  0  0  0  0  0  0  0  0
    5.5910   -4.1410   29.2880 C   0  0  0  0  0  0  0  0  0  0  0  0
    5.1730   -2.8640   29.6830 C   0  0  2  0  0  0  0  0  0  0  0  0
    3.9970   -3.4120   30.5080 C   0  0  0  0  0  0  0  0  0  0  0  0
    4.7060   -1.9590   28.7620 O   0  0  0  0  0  0  0  0  0  0  0  0
    4.3540   -4.4210   28.5490 C   0  0  0  0  0  0  0  0  0  0  0  0
    4.1170   -3.5060   27.3260 C   0  0  0  0  0  0  0  0  0  0  0  0
    6.8050   -2.7800   23.3110 C   0  0  0  0  0  0  0  0  0  0  0  0
    7.7320   -3.3900   22.2840 C   0  0  0  0  0  0  0  0  0  0  0  0
  1  2  1  0
  2  3  2  0
  2  4  1  0
  4  5  1  0
  5  6  1  0
  6  7  1  0
  7  8  1  0
  8  9  2  0
  8 10  1  0
 10 11  1  0
 11 12  1  0
 12 13  1  0
 13 14  1  0
 14 15  1  1
 14 16  1  0
 13 17  1  0
 10 18  1  0
 17 18  1  0
  7 19  1  0
  4 20  1  0
 19 20  1  0
M  END
