piperidine-amides-35627-covalent
     RDKit          3D

 36 38  0  0  0  0  0  0  0  0999 V2000
    7.0830   -3.2840   19.3140 C   0  0  0  0  0  0  0  0  0  0  0  0
    6.3850   -4.1120   20.3300 C   0  0  0  0  0  0  0  0  0  0  0  0
    5.3740   -4.7090   19.9520 O   0  0  0  0  0  0  0  0  0  0  0  0
    6.8950   -4.2270   21.6350 N   0  0  0  0  0  0  0  0  0  0  0  0
    7.6970   -3.1720   22.2390 C   0  0  0  0  0  0  0  0  0  0  0  0
    7.2700   -2.8730   23.6630 C   0  0  0  0  0  0  0  0  0  0  0  0
    5.9980   -3.6560   23.9780 C   0  0  0  0  0  0  0  0  0  0  0  0
    5.5010   -3.3330   25.3430 C   0  0  0  0  0  0  0  0  0  0  0  0
    4.2790   -3.2260   25.4820 O   0  0  0  0  0  0  0  0  0  0  0  0
    6.3350   -3.1330   26.4690 N   0  0  0  0  0  0  0  0  0  0  0  0
    6.7080   -1.7690   26.8120 C   0  0  0  0  0  0  0  0  0  0  0  0
    5.5030   -0.9570   27.2250 C   0  0  0  0  0  0  0  0  0  0  0  0
    4.1950   -1.4370   27.3210 C   0  0  0  0  0  0  0  0  0  0  0  0
    3.1170   -0.6640   27.7090 C   0  0  0  0  0  0  0  0  0  0  0  0
    3.2950    0.6520   28.0290 C   0  0  0  0  0  0  0  0  0  0  0  0
    2.3080    1.4950   28.4260 O   0  0  0  0  0  0  0  0  0  0  0  0
    2.2500    1.8490   29.7330 C   0  0  0  0  0  0  0  0  0  0  0  0
    4.5810    1.2550   27.9680 C   0  0  0  0  0  0  0  0  0  0  0  0
    4.5930    2.5840   28.3190 O   0  0  0  0  0  0  0  0  0  0  0  0
    5.8340    3.3070   28.3060 C   0  0  0  0  0  0  0  0  0  0  0  0
    5.7470    0.4510   27.5560 C   0  0  0  0  0  0  0  0  0  0  0  0
    6.3670   -3.9180   27.7330 C   0  0  1  0  0  0  0  0  0  0  0  0
    5.4370   -3.4510   28.8040 C   0  0  0  0  0  0  0  0  0  0  0  0
    6.2110   -5.4440   27.8110 C   0  0  0  0  0  0  0  0  0  0  0  0
    7.0150   -6.0530   28.7520 O   0  0  0  0  0  0  0  0  0  0  0  0
    5.2540   -6.1170   26.9510 N   0  0  0  0  0  0  0  0  0  0  0  0
    4.1050   -6.8010   27.3960 C   0  0  0  0  0  0  0  0  0  0  0  0
    3.9000   -6.8780   28.7600 C   0  0  0  0  0  0  0  0  0  0  0  0
    2.7230   -7.5670   29.3860 C   0  0  0  0  0  0  0  0  0  0  0  0
    2.4770   -7.6540   31.1190 Cl  0  0  0  0  0  0  0  0  0  0  0  0
    1.7710   -8.1780   28.3610 C   0  0  0  0  0  0  0  0  0  0  0  0
    2.1140   -8.0250   26.8860 C   0  0  0  0  0  0  0  0  0  0  0  0
    3.2240   -7.3690   26.4390 C   0  0  0  0  0  0  0  0  0  0  0  0
    3.5640   -7.2220   24.7210 Cl  0  0  0  0  0  0  0  0  0  0  0  0
    6.0970   -5.0870   23.7300 C   0  0  0  0  0  0  0  0  0  0  0  0
    6.6900   -5.4070   22.4090 C   0  0  0  0  0  0  0  0  0  0  0  0
  1  2  1  0
  2  3  2  0
  2  4  1  0
  4  5  1  0
  5  6  1  0
  6  7  1  0
  7  8  1  0
  8  9  2  0
  8 10  1  0
 10 11  1  0
 11 12  1  0
 12 13  2  0
 13 14  1  0
 14 15  2  0
 15 16  1  0
 16 17  1  0
 15 18  1  0
 18 19  1  0
 19 20  1  0
 12 21  1  0
 18 21  2  0
 10 22  1  0
 22 23  1  1
 22 24  1  0
 24 25  2  0
 24 26  1  0
 26 27  1  0
 27 28  2  0
 28 29  1  0
 29 30  1  0
 29 31  2  0
 31 32  1  0
 27 33  1  0
 32 33  2  0
 33 34  1  0
  7 35  1  0
  4 36  1  0
 35 36  1  0
M  END
