piperidine-amides-3091-covalent
     RDKit          3D

 23 24  0  0  0  0  0  0  0  0999 V2000
    7.1240   -3.2650   19.2330 C   0  0  0  0  0  0  0  0  0  0  0  0
    6.3530   -4.0320   20.2060 C   0  0  0  0  0  0  0  0  0  0  0  0
    5.2900   -4.5590   19.8860 O   0  0  0  0  0  0  0  0  0  0  0  0
    6.8700   -4.2200   21.5330 N   0  0  0  0  0  0  0  0  0  0  0  0
    6.5390   -5.4120   22.2540 C   0  0  0  0  0  0  0  0  0  0  0  0
    5.8460   -5.0340   23.5300 C   0  0  0  0  0  0  0  0  0  0  0  0
    6.5760   -3.8470   24.1440 C   0  0  0  0  0  0  0  0  0  0  0  0
    5.7630   -3.3550   25.2850 C   0  0  0  0  0  0  0  0  0  0  0  0
    4.6020   -2.9290   25.1410 O   0  0  0  0  0  0  0  0  0  0  0  0
    6.3350   -3.3740   26.5720 N   0  0  0  0  0  0  0  0  0  0  0  0
    5.8010   -4.2630   27.5830 C   0  0  0  0  0  0  0  0  0  0  0  0
    5.8210   -5.6960   27.0990 C   0  0  0  0  0  0  0  0  0  0  0  0
    6.6980   -4.2180   28.7340 C   0  0  0  0  0  0  0  0  0  0  0  0
    4.4460   -3.8570   28.0100 C   0  0  0  0  0  0  0  0  0  0  0  0
    4.2970   -2.8270   28.9330 C   0  0  0  0  0  0  0  0  0  0  0  0
    2.9590   -2.4400   29.3450 C   0  0  0  0  0  0  0  0  0  0  0  0
    1.8390   -3.0460   28.8650 C   0  0  0  0  0  0  0  0  0  0  0  0
    0.6000   -2.6890   29.2490 F   0  0  0  0  0  0  0  0  0  0  0  0
    2.0400   -4.0520   27.9600 C   0  0  0  0  0  0  0  0  0  0  0  0
    3.2950   -4.4760   27.5190 C   0  0  0  0  0  0  0  0  0  0  0  0
    3.3430   -5.4850   26.6190 F   0  0  0  0  0  0  0  0  0  0  0  0
    6.9170   -2.7520   23.2550 C   0  0  0  0  0  0  0  0  0  0  0  0
    7.6720   -3.2310   22.2050 C   0  0  0  0  0  0  0  0  0  0  0  0
  1  2  1  0
  2  3  2  0
  2  4  1  0
  4  5  1  0
  5  6  1  0
  6  7  1  0
  7  8  1  0
  8  9  2  0
  8 10  1  0
 11 10  1  0
 11 12  1  0
 11 13  1  0
 11 14  1  0
 14 15  2  0
 15 16  1  0
 16 17  2  0
 17 18  1  0
 17 19  1  0
 14 20  1  0
 19 20  2  0
 20 21  1  0
  7 22  1  0
  4 23  1  0
 22 23  1  0
M  END
