piperidine-amides-35171-covalent
     RDKit          3D

 32 32  0  0  0  0  0  0  0  0999 V2000
    7.1010   -3.2630   19.1870 C   0  0  0  0  0  0  0  0  0  0  0  0
    6.3450   -4.0240   20.2200 C   0  0  0  0  0  0  0  0  0  0  0  0
    5.2810   -4.5330   19.8760 O   0  0  0  0  0  0  0  0  0  0  0  0
    6.8750   -4.1800   21.5000 N   0  0  0  0  0  0  0  0  0  0  0  0
    7.7280   -3.1960   22.1120 C   0  0  0  0  0  0  0  0  0  0  0  0
    7.1080   -2.7130   23.3830 C   0  0  0  0  0  0  0  0  0  0  0  0
    6.7550   -3.8990   24.2860 C   0  0  0  0  0  0  0  0  0  0  0  0
    6.1250   -3.3130   25.4810 C   0  0  0  0  0  0  0  0  0  0  0  0
    4.8870   -3.2350   25.5430 O   0  0  0  0  0  0  0  0  0  0  0  0
    6.9270   -2.8140   26.5370 N   0  0  0  0  0  0  0  0  0  0  0  0
    6.8430   -1.4070   26.8380 C   0  0  0  0  0  0  0  0  0  0  0  0
    5.4480   -1.1030   27.3570 C   0  0  0  0  0  0  0  0  0  0  0  0
    5.6110   -0.2750   28.5660 N   0  0  0  0  0  0  0  0  0  0  0  0
    4.4420    0.6100   28.6040 C   0  0  0  0  0  0  0  0  0  0  0  0
    3.2720    0.2130   28.3380 O   0  0  0  0  0  0  0  0  0  0  0  0
    4.5710    1.9300   28.9390 O   0  0  0  0  0  0  0  0  0  0  0  0
    4.3290    3.0000   28.0250 C   0  0  0  0  0  0  0  0  0  0  0  0
    3.5880    3.8650   28.7870 C   0  0  0  0  0  0  0  0  0  0  0  0
    4.8100    4.3110   28.3810 C   0  0  0  0  0  0  0  0  0  0  0  0
    3.1660    2.9940   27.1210 C   0  0  0  0  0  0  0  0  0  0  0  0
    7.3420   -3.6400   27.6480 C   0  0  0  0  0  0  0  0  0  0  0  0
    7.6490   -5.0790   27.4030 C   0  0  0  0  0  0  0  0  0  0  0  0
    6.8850   -6.1130   27.8390 N   0  0  0  0  0  0  0  0  0  0  0  0
    5.4600   -5.9890   28.0460 C   0  0  0  0  0  0  0  0  0  0  0  0
    4.5120   -5.9830   27.0260 O   0  0  0  0  0  0  0  0  0  0  0  0
    4.9410   -5.8790   29.3140 O   0  0  0  0  0  0  0  0  0  0  0  0
    4.7640   -6.9930   30.1380 C   0  0  0  0  0  0  0  0  0  0  0  0
    6.0080   -7.7800   30.0380 C   0  0  0  0  0  0  0  0  0  0  0  0
    3.5740   -7.6530   29.8460 C   0  0  0  0  0  0  0  0  0  0  0  0
    4.6460   -6.5920   31.5810 C   0  0  0  0  0  0  0  0  0  0  0  0
    5.8860   -4.8800   23.5420 C   0  0  0  0  0  0  0  0  0  0  0  0
    6.5890   -5.3860   22.2800 C   0  0  0  0  0  0  0  0  0  0  0  0
  1  2  1  0
  2  3  2  0
  2  4  1  0
  4  5  1  0
  5  6  1  0
  6  7  1  0
  7  8  1  0
  8  9  2  0
  8 10  1  0
 10 11  1  0
 11 12  1  0
 12 13  1  0
 13 14  1  0
 14 15  2  0
 14 16  1  0
 17 16  1  0
 17 18  1  0
 17 19  1  0
 17 20  1  0
 10 21  1  0
 21 22  1  0
 22 23  1  0
 23 24  1  0
 24 25  2  0
 24 26  1  0
 27 26  1  0
 27 28  1  0
 27 29  1  0
 27 30  1  0
  7 31  1  0
  4 32  1  0
 31 32  1  0
M  END
