piperidine-amides-9847-covalent
     RDKit          3D

 27 29  0  0  0  0  0  0  0  0999 V2000
    7.0050   -3.2650   19.2380 C   0  0  0  0  0  0  0  0  0  0  0  0
    6.2820   -4.0560   20.2490 C   0  0  0  0  0  0  0  0  0  0  0  0
    5.2180   -4.5970   19.8740 O   0  0  0  0  0  0  0  0  0  0  0  0
    6.7790   -4.2230   21.5360 N   0  0  0  0  0  0  0  0  0  0  0  0
    7.6140   -3.2160   22.1280 C   0  0  0  0  0  0  0  0  0  0  0  0
    7.4060   -3.2820   23.6000 C   0  0  0  0  0  0  0  0  0  0  0  0
    6.0260   -3.7390   23.9800 C   0  0  0  0  0  0  0  0  0  0  0  0
    5.8330   -3.5470   25.4420 C   0  0  0  0  0  0  0  0  0  0  0  0
    4.6570   -3.4120   25.8570 O   0  0  0  0  0  0  0  0  0  0  0  0
    6.8990   -3.4920   26.3820 N   0  0  0  0  0  0  0  0  0  0  0  0
    7.0620   -4.4550   27.4470 C   0  0  0  0  0  0  0  0  0  0  0  0
    8.3810   -5.2270   27.3790 C   0  0  0  0  0  0  0  0  0  0  0  0
    8.9610   -5.6500   26.2080 C   0  0  0  0  0  0  0  0  0  0  0  0
    9.5790   -4.7690   25.3600 C   0  0  0  0  0  0  0  0  0  0  0  0
    9.6340   -3.4660   25.7750 C   0  0  0  0  0  0  0  0  0  0  0  0
    9.5370   -2.4180   24.8850 C   0  0  0  0  0  0  0  0  0  0  0  0
    8.3070   -1.8210   24.6050 C   0  0  0  0  0  0  0  0  0  0  0  0
    8.0110   -0.6620   23.6640 C   0  0  0  0  0  0  0  0  0  0  0  0
    9.3170   -0.2210   23.0490 C   0  0  0  0  0  0  0  0  0  0  0  0
   10.6170   -0.8730   23.3690 C   0  0  0  0  0  0  0  0  0  0  0  0
   11.9030   -0.4040   22.7430 C   0  0  0  0  0  0  0  0  0  0  0  0
   13.1350   -0.9390   22.9640 C   0  0  0  0  0  0  0  0  0  0  0  0
   13.3020   -2.1060   23.9160 C   0  0  0  0  0  0  0  0  0  0  0  0
   12.0140   -2.5660   24.5480 C   0  0  0  0  0  0  0  0  0  0  0  0
   10.6610   -1.9260   24.2550 C   0  0  0  0  0  0  0  0  0  0  0  0
    5.8040   -5.1430   23.5120 C   0  0  0  0  0  0  0  0  0  0  0  0
    6.6400   -5.4650   22.2760 C   0  0  0  0  0  0  0  0  0  0  0  0
  1  2  1  0
  2  3  2  0
  2  4  1  0
  4  5  1  0
  5  6  1  0
  6  7  1  0
  7  8  1  0
  8  9  2  0
  8 10  1  0
 10 11  1  0
 11 12  1  0
 12 13  1  0
 13 14  1  0
 14 15  1  0
 15 16  1  0
 16 17  2  0
 17 18  1  0
 18 19  2  0
 19 20  1  0
 20 21  1  0
 21 22  2  0
 22 23  1  0
 23 24  2  0
 16 25  1  0
 20 25  2  0
 24 25  1  0
  7 26  1  0
  4 27  1  0
 26 27  1  0
M  END
