piperidine-amides-25993-covalent
     RDKit          3D

 23 24  0  0  0  0  0  0  0  0999 V2000
    7.1270   -3.3480   19.2990 C   0  0  0  0  0  0  0  0  0  0  0  0
    6.4190   -4.1660   20.2860 C   0  0  0  0  0  0  0  0  0  0  0  0
    5.3680   -4.7390   19.9560 O   0  0  0  0  0  0  0  0  0  0  0  0
    6.9320   -4.3690   21.5790 N   0  0  0  0  0  0  0  0  0  0  0  0
    6.6030   -5.5500   22.3270 C   0  0  0  0  0  0  0  0  0  0  0  0
    5.8480   -5.0440   23.5270 C   0  0  0  0  0  0  0  0  0  0  0  0
    6.4900   -3.8490   24.1950 C   0  0  0  0  0  0  0  0  0  0  0  0
    5.5770   -3.2240   25.1720 C   0  0  0  0  0  0  0  0  0  0  0  0
    4.8610   -2.2440   24.8200 O   0  0  0  0  0  0  0  0  0  0  0  0
    5.4070   -3.6440   26.4990 N   0  0  0  0  0  0  0  0  0  0  0  0
    4.0360   -3.7270   27.0250 C   0  0  0  0  0  0  0  0  0  0  0  0
    3.9920   -4.8100   28.0280 C   0  0  0  0  0  0  0  0  0  0  0  0
    4.0980   -6.0290   27.3710 F   0  0  0  0  0  0  0  0  0  0  0  0
    2.7290   -4.8500   28.6460 F   0  0  0  0  0  0  0  0  0  0  0  0
    5.0630   -4.8090   28.9900 C   0  0  0  0  0  0  0  0  0  0  0  0
    4.9570   -5.8120   29.9370 F   0  0  0  0  0  0  0  0  0  0  0  0
    4.8280   -3.5550   29.5720 F   0  0  0  0  0  0  0  0  0  0  0  0
    6.3330   -4.7940   28.2640 C   0  0  0  0  0  0  0  0  0  0  0  0
    6.3280   -5.8990   27.4280 F   0  0  0  0  0  0  0  0  0  0  0  0
    7.3210   -4.8320   29.1860 F   0  0  0  0  0  0  0  0  0  0  0  0
    6.3360   -3.4630   27.5440 C   0  0  0  0  0  0  0  0  0  0  0  0
    6.8590   -2.7830   23.2230 C   0  0  0  0  0  0  0  0  0  0  0  0
    7.5960   -3.2620   22.1910 C   0  0  0  0  0  0  0  0  0  0  0  0
  1  2  1  0
  2  3  2  0
  2  4  1  0
  4  5  1  0
  5  6  1  0
  6  7  1  0
  7  8  1  0
  8  9  2  0
  8 10  1  0
 10 11  1  0
 11 12  1  0
 12 13  1  0
 12 14  1  0
 12 15  1  0
 15 16  1  0
 15 17  1  0
 15 18  1  0
 18 19  1  0
 18 20  1  0
 10 21  1  0
 18 21  1  0
  7 22  1  0
  4 23  1  0
 22 23  1  0
M  END
