piperidine-amides-1897-covalent
     RDKit          3D

 17 18  0  0  0  0  0  0  0  0999 V2000
    7.1020   -3.2750   19.2450 C   0  0  0  0  0  0  0  0  0  0  0  0
    6.3580   -4.0600   20.2650 C   0  0  0  0  0  0  0  0  0  0  0  0
    5.3140   -4.6040   19.9050 O   0  0  0  0  0  0  0  0  0  0  0  0
    6.8720   -4.1870   21.5600 N   0  0  0  0  0  0  0  0  0  0  0  0
    7.7240   -3.1600   22.1170 C   0  0  0  0  0  0  0  0  0  0  0  0
    7.4280   -2.9460   23.5700 C   0  0  0  0  0  0  0  0  0  0  0  0
    6.0420   -3.4850   23.9080 C   0  0  0  0  0  0  0  0  0  0  0  0
    5.7520   -3.1810   25.3140 C   0  0  0  0  0  0  0  0  0  0  0  0
    4.6550   -3.4910   25.8000 O   0  0  0  0  0  0  0  0  0  0  0  0
    6.7220   -2.5310   26.0900 N   0  0  0  0  0  0  0  0  0  0  0  0
    6.3040   -1.6410   27.1440 C   0  0  0  0  0  0  0  0  0  0  0  0
    5.5380   -0.5020   26.5000 C   0  0  0  0  0  0  0  0  0  0  0  0
    5.3260    0.6900   27.0800 C   0  0  0  0  0  0  0  0  0  0  0  0
    4.0220    0.5350   27.0610 C   0  0  0  0  0  0  0  0  0  0  0  0
    4.0010   -0.7170   26.4660 C   0  0  0  0  0  0  0  0  0  0  0  0
    6.0070   -4.9840   23.6690 C   0  0  0  0  0  0  0  0  0  0  0  0
    6.5670   -5.3430   22.3360 C   0  0  0  0  0  0  0  0  0  0  0  0
  1  2  1  0
  2  3  2  0
  2  4  1  0
  4  5  1  0
  5  6  1  0
  6  7  1  0
  7  8  1  0
  8  9  2  0
  8 10  1  0
 10 11  1  0
 11 12  1  0
 12 13  1  0
 13 14  1  0
 12 15  1  0
 14 15  1  0
  7 16  1  0
  4 17  1  0
 16 17  1  0
M  END
