piperidine-amides-14766-covalent
     RDKit          3D

 22 23  0  0  0  0  0  0  0  0999 V2000
    7.0590   -3.3420   19.3360 C   0  0  0  0  0  0  0  0  0  0  0  0
    6.4090   -4.1860   20.3340 C   0  0  0  0  0  0  0  0  0  0  0  0
    5.3950   -4.8210   19.9840 O   0  0  0  0  0  0  0  0  0  0  0  0
    6.9660   -4.3100   21.6370 N   0  0  0  0  0  0  0  0  0  0  0  0
    7.7420   -3.2330   22.1870 C   0  0  0  0  0  0  0  0  0  0  0  0
    6.9930   -2.6350   23.3310 C   0  0  0  0  0  0  0  0  0  0  0  0
    6.5890   -3.7900   24.2090 C   0  0  0  0  0  0  0  0  0  0  0  0
    5.7730   -3.2760   25.3570 C   0  0  0  0  0  0  0  0  0  0  0  0
    4.5800   -3.0730   25.1380 O   0  0  0  0  0  0  0  0  0  0  0  0
    6.4080   -3.0770   26.5760 N   0  0  0  0  0  0  0  0  0  0  0  0
    6.4330   -1.8160   27.2450 C   0  0  0  0  0  0  0  0  0  0  0  0
    6.9830   -1.6150   28.5040 C   0  0  0  0  0  0  0  0  0  0  0  0
    6.9940   -0.3930   29.1410 C   0  0  0  0  0  0  0  0  0  0  0  0
    6.4590    0.7940   28.6150 C   0  0  0  0  0  0  0  0  0  0  0  0
    6.5360    1.9580   29.3650 O   0  0  0  0  0  0  0  0  0  0  0  0
    5.8470    0.6480   27.2480 C   0  0  0  0  0  0  0  0  0  0  0  0
    5.2150    1.8580   26.5260 C   0  0  0  0  0  0  0  0  0  0  0  0
    4.4520    1.4650   25.3090 C   0  0  0  0  0  0  0  0  0  0  0  0
    6.2100    2.9550   26.2330 C   0  0  0  0  0  0  0  0  0  0  0  0
    5.8520   -0.6240   26.6170 C   0  0  0  0  0  0  0  0  0  0  0  0
    5.7030   -4.7530   23.4400 C   0  0  0  0  0  0  0  0  0  0  0  0
    6.5490   -5.3580   22.5280 C   0  0  0  0  0  0  0  0  0  0  0  0
  1  2  1  0
  2  3  2  0
  2  4  1  0
  4  5  1  0
  5  6  1  0
  6  7  1  0
  7  8  1  0
  8  9  2  0
  8 10  1  0
 10 11  1  0
 11 12  2  0
 12 13  1  0
 13 14  2  0
 14 15  1  0
 14 16  1  0
 16 17  1  0
 17 18  1  0
 17 19  1  0
 11 20  1  0
 16 20  2  0
  7 21  1  0
  4 22  1  0
 21 22  1  0
M  END
