piperidine-amides-2797-covalent
     RDKit          3D

 24 26  0  0  0  0  0  0  0  0999 V2000
    7.0660   -3.3450   19.2500 C   0  0  0  0  0  0  0  0  0  0  0  0
    6.3760   -4.1480   20.2540 C   0  0  0  0  0  0  0  0  0  0  0  0
    5.3470   -4.7490   19.9570 O   0  0  0  0  0  0  0  0  0  0  0  0
    6.9290   -4.2870   21.5720 N   0  0  0  0  0  0  0  0  0  0  0  0
    7.6640   -3.1910   22.1520 C   0  0  0  0  0  0  0  0  0  0  0  0
    6.8760   -2.6010   23.2830 C   0  0  0  0  0  0  0  0  0  0  0  0
    6.6240   -3.6990   24.2930 C   0  0  0  0  0  0  0  0  0  0  0  0
    5.7600   -3.1740   25.3870 C   0  0  0  0  0  0  0  0  0  0  0  0
    4.5380   -3.0170   25.2170 O   0  0  0  0  0  0  0  0  0  0  0  0
    6.3280   -2.8480   26.6490 N   0  0  0  0  0  0  0  0  0  0  0  0
    6.7420   -1.4780   26.9090 C   0  0  0  0  0  0  0  0  0  0  0  0
    7.1300   -1.4740   28.2260 C   0  0  0  0  0  0  0  0  0  0  0  0
    6.0120   -2.0520   28.6990 N   0  0  0  0  0  0  0  0  0  0  0  0
    5.0680   -1.7840   27.6550 N   0  0  0  0  0  0  0  0  0  0  0  0
    3.6710   -2.1970   27.7740 C   0  0  0  0  0  0  0  0  0  0  0  0
    2.7910   -1.9690   26.7240 C   0  0  0  0  0  0  0  0  0  0  0  0
    1.4650   -2.3000   26.6960 C   0  0  0  0  0  0  0  0  0  0  0  0
    0.8790   -2.9050   27.7420 N   0  0  0  0  0  0  0  0  0  0  0  0
    1.7240   -3.1860   28.8940 C   0  0  0  0  0  0  0  0  0  0  0  0
    1.2250   -3.7990   30.0110 F   0  0  0  0  0  0  0  0  0  0  0  0
    3.0610   -2.8180   28.8420 C   0  0  0  0  0  0  0  0  0  0  0  0
    5.6090   -0.8740   26.5570 C   0  0  0  0  0  0  0  0  0  0  0  0
    6.1170   -4.9930   23.7560 C   0  0  0  0  0  0  0  0  0  0  0  0
    6.4970   -5.3540   22.3910 C   0  0  0  0  0  0  0  0  0  0  0  0
  1  2  1  0
  2  3  2  0
  2  4  1  0
  4  5  1  0
  5  6  1  0
  6  7  1  0
  7  8  1  0
  8  9  2  0
  8 10  1  0
 10 11  1  0
 11 12  1  0
 12 13  2  0
 13 14  1  0
 14 15  1  0
 15 16  2  0
 16 17  1  0
 17 18  2  0
 18 19  1  0
 19 20  1  0
 15 21  1  0
 19 21  2  0
 11 22  2  0
 14 22  1  0
  7 23  1  0
  4 24  1  0
 23 24  1  0
M  END
