piperidine-amides-8501-covalent
     RDKit          3D

 24 25  0  0  0  0  0  0  0  0999 V2000
    7.0040   -3.3430   19.3560 C   0  0  0  0  0  0  0  0  0  0  0  0
    6.3480   -4.1830   20.3650 C   0  0  0  0  0  0  0  0  0  0  0  0
    5.4060   -4.8990   19.9900 O   0  0  0  0  0  0  0  0  0  0  0  0
    6.7970   -4.2000   21.7170 N   0  0  0  0  0  0  0  0  0  0  0  0
    7.7050   -3.1830   22.1790 C   0  0  0  0  0  0  0  0  0  0  0  0
    7.4930   -2.9910   23.6440 C   0  0  0  0  0  0  0  0  0  0  0  0
    6.1080   -3.5300   23.8910 C   0  0  0  0  0  0  0  0  0  0  0  0
    5.6380   -3.2170   25.2830 C   0  0  0  0  0  0  0  0  0  0  0  0
    4.4300   -3.3230   25.4860 O   0  0  0  0  0  0  0  0  0  0  0  0
    6.5750   -2.8270   26.2300 N   0  0  0  0  0  0  0  0  0  0  0  0
    6.4790   -1.6070   26.9670 C   0  0  0  0  0  0  0  0  0  0  0  0
    5.9380   -0.4170   26.5060 C   0  0  0  0  0  0  0  0  0  0  0  0
    5.8810    0.7210   27.2770 C   0  0  0  0  0  0  0  0  0  0  0  0
    6.3440    0.8440   28.5930 C   0  0  0  0  0  0  0  0  0  0  0  0
    6.2820    1.9870   29.3500 F   0  0  0  0  0  0  0  0  0  0  0  0
    6.9470   -0.4260   29.1540 C   0  0  0  0  0  0  0  0  0  0  0  0
    7.4210   -0.3910   30.4250 N   0  0  0  0  0  0  0  0  0  0  0  0
    6.6220   -0.1530   31.4650 C   0  0  0  0  0  0  0  0  0  0  0  0
    5.4090   -0.4530   31.3350 O   0  0  0  0  0  0  0  0  0  0  0  0
    7.0990    0.4260   32.7490 C   0  0  0  0  0  0  0  0  0  0  0  0
    5.9640    0.6670   33.7020 C   0  0  0  0  0  0  0  0  0  0  0  0
    6.9970   -1.5960   28.3450 C   0  0  0  0  0  0  0  0  0  0  0  0
    6.1140   -5.0360   23.7270 C   0  0  0  0  0  0  0  0  0  0  0  0
    6.6640   -5.4070   22.5060 C   0  0  0  0  0  0  0  0  0  0  0  0
  1  2  1  0
  2  3  2  0
  2  4  1  0
  4  5  1  0
  5  6  1  0
  6  7  1  0
  7  8  1  0
  8  9  2  0
  8 10  1  0
 10 11  1  0
 11 12  2  0
 12 13  1  0
 13 14  2  0
 14 15  1  0
 14 16  1  0
 16 17  1  0
 17 18  1  0
 18 19  2  0
 18 20  1  0
 20 21  2  3
 11 22  1  0
 16 22  2  0
  7 23  1  0
  4 24  1  0
 23 24  1  0
M  END
