piperidine-amides-7145-covalent
     RDKit          3D

 21 22  0  0  0  0  0  0  0  0999 V2000
    7.0260   -3.3600   19.3440 C   0  0  0  0  0  0  0  0  0  0  0  0
    6.3780   -4.2130   20.3510 C   0  0  0  0  0  0  0  0  0  0  0  0
    5.3550   -4.8400   19.9740 O   0  0  0  0  0  0  0  0  0  0  0  0
    6.9040   -4.3440   21.6420 N   0  0  0  0  0  0  0  0  0  0  0  0
    6.6380   -5.5000   22.4730 C   0  0  0  0  0  0  0  0  0  0  0  0
    6.0420   -5.0530   23.7890 C   0  0  0  0  0  0  0  0  0  0  0  0
    6.0580   -3.5540   23.9630 C   0  0  0  0  0  0  0  0  0  0  0  0
    5.8030   -3.1760   25.3700 C   0  0  0  0  0  0  0  0  0  0  0  0
    4.6860   -3.4300   25.8710 O   0  0  0  0  0  0  0  0  0  0  0  0
    6.7970   -2.5360   26.1260 N   0  0  0  0  0  0  0  0  0  0  0  0
    6.5280   -1.3590   26.9190 C   0  0  0  0  0  0  0  0  0  0  0  0
    7.0660   -1.3770   28.3360 C   0  0  0  0  0  0  0  0  0  0  0  0
    6.8960   -0.3180   29.1980 C   0  0  0  0  0  0  0  0  0  0  0  0
    7.3870   -0.3310   30.4850 C   0  0  0  0  0  0  0  0  0  0  0  0
    6.5280   -0.0560   31.5320 C   0  0  0  0  0  0  0  0  0  0  0  0
    6.2080    0.7780   28.7230 C   0  0  0  0  0  0  0  0  0  0  0  0
    5.6790    0.8890   27.4490 C   0  0  0  0  0  0  0  0  0  0  0  0
    5.8380   -0.2440   26.4680 C   0  0  0  0  0  0  0  0  0  0  0  0
    5.3210   -0.1470   25.2030 O   0  0  0  0  0  0  0  0  0  0  0  0
    7.3830   -2.9810   23.5870 C   0  0  0  0  0  0  0  0  0  0  0  0
    7.6910   -3.2120   22.1370 C   0  0  0  0  0  0  0  0  0  0  0  0
  1  2  1  0
  2  3  2  0
  2  4  1  0
  4  5  1  0
  5  6  1  0
  6  7  1  0
  7  8  1  0
  8  9  2  0
  8 10  1  0
 10 11  1  0
 11 12  2  0
 12 13  1  0
 13 14  1  0
 14 15  1  0
 13 16  2  0
 16 17  1  0
 11 18  1  0
 17 18  2  0
 18 19  1  0
  7 20  1  0
  4 21  1  0
 20 21  1  0
M  END
