piperidine-amides-30760-covalent
     RDKit          3D

 27 29  0  0  0  0  0  0  0  0999 V2000
    7.0590   -3.3610   19.3770 C   0  0  0  0  0  0  0  0  0  0  0  0
    6.3970   -4.2070   20.3710 C   0  0  0  0  0  0  0  0  0  0  0  0
    5.4230   -4.8950   20.0040 O   0  0  0  0  0  0  0  0  0  0  0  0
    6.8670   -4.2870   21.7000 N   0  0  0  0  0  0  0  0  0  0  0  0
    7.7470   -3.2440   22.2380 C   0  0  0  0  0  0  0  0  0  0  0  0
    7.4300   -3.0410   23.6980 C   0  0  0  0  0  0  0  0  0  0  0  0
    6.1800   -3.7620   24.0660 C   0  0  0  0  0  0  0  0  0  0  0  0
    5.6850   -3.4770   25.4450 C   0  0  0  0  0  0  0  0  0  0  0  0
    4.7080   -2.6830   25.5720 O   0  0  0  0  0  0  0  0  0  0  0  0
    6.1870   -4.0190   26.6570 N   0  0  0  0  0  0  0  0  0  0  0  0
    5.9750   -5.4480   26.9300 C   0  0  0  0  0  0  0  0  0  0  0  0
    5.4910   -5.5610   28.3080 C   0  0  0  0  0  0  0  0  0  0  0  0
    4.8800   -4.4350   29.0450 C   0  0  0  0  0  0  0  0  0  0  0  0
    4.2390   -4.3940   30.4120 C   0  0  0  0  0  0  0  0  0  0  0  0
    3.9370   -2.9510   30.8730 C   0  0  0  0  0  0  0  0  0  0  0  0
    3.2950   -2.8470   32.2280 C   0  0  0  0  0  0  0  0  0  0  0  0
    3.0060   -3.9500   32.9800 C   0  0  0  0  0  0  0  0  0  0  0  0
    3.2910   -5.2160   32.5250 C   0  0  0  0  0  0  0  0  0  0  0  0
    3.9300   -5.4790   31.1970 C   0  0  0  0  0  0  0  0  0  0  0  0
    4.1830   -6.9410   30.8310 C   0  0  0  0  0  0  0  0  0  0  0  0
    3.5350   -7.8140   31.6720 F   0  0  0  0  0  0  0  0  0  0  0  0
    3.7150   -7.2450   29.5510 F   0  0  0  0  0  0  0  0  0  0  0  0
    5.5410   -7.2740   30.9400 F   0  0  0  0  0  0  0  0  0  0  0  0
    4.9420   -3.2670   28.1410 C   0  0  0  0  0  0  0  0  0  0  0  0
    6.0780   -3.1480   27.7950 C   0  0  0  0  0  0  0  0  0  0  0  0
    6.2080   -5.2010   23.7700 C   0  0  0  0  0  0  0  0  0  0  0  0
    6.6680   -5.4680   22.4960 C   0  0  0  0  0  0  0  0  0  0  0  0
  1  2  1  0
  2  3  2  0
  2  4  1  0
  4  5  1  0
  5  6  1  0
  6  7  1  0
  7  8  1  0
  8  9  2  0
  8 10  1  0
 10 11  1  0
 11 12  1  0
 12 13  2  0
 13 14  1  0
 14 15  2  0
 15 16  1  0
 16 17  2  0
 17 18  1  0
 14 19  1  0
 18 19  2  0
 19 20  1  0
 20 21  1  0
 20 22  1  0
 20 23  1  0
 13 24  1  0
 10 25  1  0
 24 25  1  0
  7 26  1  0
  4 27  1  0
 26 27  1  0
M  END
