piperidine-amides-27949-covalent
     RDKit          3D

 26 29  0  0  0  0  0  0  0  0999 V2000
    7.1110   -3.2990   19.2720 C   0  0  0  0  0  0  0  0  0  0  0  0
    6.3580   -4.0610   20.2960 C   0  0  0  0  0  0  0  0  0  0  0  0
    5.3100   -4.6170   19.9110 O   0  0  0  0  0  0  0  0  0  0  0  0
    6.8430   -4.1780   21.6120 N   0  0  0  0  0  0  0  0  0  0  0  0
    6.4800   -5.2880   22.4220 C   0  0  0  0  0  0  0  0  0  0  0  0
    5.9860   -4.9360   23.7650 C   0  0  0  0  0  0  0  0  0  0  0  0
    6.3490   -3.5950   24.3090 C   0  0  0  0  0  0  0  0  0  0  0  0
    5.2110   -3.0770   25.1300 C   0  0  0  0  0  0  0  0  0  0  0  0
    4.0990   -3.6030   24.9610 O   0  0  0  0  0  0  0  0  0  0  0  0
    5.3460   -2.0370   26.0830 N   0  0  0  0  0  0  0  0  0  0  0  0
    6.6690   -1.5630   26.4710 C   0  0  0  0  0  0  0  0  0  0  0  0
    6.0980   -1.8620   27.7600 C   0  0  0  0  0  0  0  0  0  0  0  0
    6.6170   -2.9390   28.5900 C   0  0  0  0  0  0  0  0  0  0  0  0
    6.5560   -1.5330   29.1150 C   0  0  0  0  0  0  0  0  0  0  0  0
    4.7910   -2.2260   27.4890 C   0  0  1  0  0  0  0  0  0  0  0  0
    3.8280   -1.3910   27.9620 C   0  0  0  0  0  0  0  0  0  0  0  0
    2.9130   -1.7160   28.9550 N   0  0  0  0  0  0  0  0  0  0  0  0
    2.1550   -0.5050   29.0690 C   0  0  0  0  0  0  0  0  0  0  0  0
    2.6030    0.4780   28.1900 C   0  0  0  0  0  0  0  0  0  0  0  0
    3.6240   -0.0800   27.5220 N   0  0  0  0  0  0  0  0  0  0  0  0
    4.3230    0.5730   26.5730 C   0  0  0  0  0  0  0  0  0  0  0  0
    4.0250    1.9750   26.1980 C   0  0  0  0  0  0  0  0  0  0  0  0
    2.6660    2.0180   25.8800 C   0  0  0  0  0  0  0  0  0  0  0  0
    3.6320    2.2900   24.6980 C   0  0  0  0  0  0  0  0  0  0  0  0
    6.8420   -2.5850   23.3500 C   0  0  0  0  0  0  0  0  0  0  0  0
    7.6710   -3.1680   22.2310 C   0  0  0  0  0  0  0  0  0  0  0  0
  1  2  1  0
  2  3  2  0
  2  4  1  0
  4  5  1  0
  5  6  1  0
  6  7  1  0
  7  8  1  0
  8  9  2  0
  8 10  1  0
 10 11  1  0
 11 12  1  0
 12 13  1  0
 12 14  1  0
 10 15  1  0
 12 15  1  0
 15 16  1  1
 16 17  2  0
 17 18  1  0
 18 19  2  0
 16 20  1  0
 19 20  1  0
 20 21  1  0
 21 22  1  0
 22 23  1  0
 22 24  1  0
 23 24  1  0
  7 25  1  0
  4 26  1  0
 25 26  1  0
M  END
