piperidine-amides-28829-covalent
     RDKit          3D

 26 28  0  0  0  0  0  0  0  0999 V2000
    7.0570   -3.3380   19.3270 C   0  0  0  0  0  0  0  0  0  0  0  0
    6.3950   -4.1790   20.3200 C   0  0  0  0  0  0  0  0  0  0  0  0
    5.3840   -4.8180   19.9750 O   0  0  0  0  0  0  0  0  0  0  0  0
    6.9290   -4.2890   21.6290 N   0  0  0  0  0  0  0  0  0  0  0  0
    6.7100   -5.5180   22.3470 C   0  0  0  0  0  0  0  0  0  0  0  0
    6.3280   -5.2360   23.7770 C   0  0  0  0  0  0  0  0  0  0  0  0
    6.2540   -3.7350   23.9200 C   0  0  0  0  0  0  0  0  0  0  0  0
    5.6480   -3.2920   25.2090 C   0  0  0  0  0  0  0  0  0  0  0  0
    4.7800   -2.4340   25.1160 O   0  0  0  0  0  0  0  0  0  0  0  0
    6.0630   -3.8620   26.3950 N   0  0  0  0  0  0  0  0  0  0  0  0
    5.5020   -5.1250   26.7370 C   0  0  0  0  0  0  0  0  0  0  0  0
    5.4850   -5.4530   28.0700 C   0  0  0  0  0  0  0  0  0  0  0  0
    5.5190   -4.3680   28.8130 C   0  0  0  0  0  0  0  0  0  0  0  0
    6.5860   -3.5210   28.7740 C   0  0  0  0  0  0  0  0  0  0  0  0
    6.3710   -2.7880   27.4690 C   0  0  0  0  0  0  0  0  0  0  0  0
    4.1510   -3.9620   29.4500 C   0  0  0  0  0  0  0  0  0  0  0  0
    4.5360   -3.1200   28.5280 C   0  0  1  0  0  0  0  0  0  0  0  0
    4.4540   -1.7220   29.0630 C   0  0  0  0  0  0  0  0  0  0  0  0
    3.5980   -0.9010   28.6370 O   0  0  0  0  0  0  0  0  0  0  0  0
    5.2570   -1.3670   29.9670 O   0  0  0  0  0  0  0  0  0  0  0  0
    6.2680   -0.3890   29.7740 C   0  0  0  0  0  0  0  0  0  0  0  0
    7.5140   -0.9090   30.0290 C   0  0  0  0  0  0  0  0  0  0  0  0
    6.3310    0.2450   28.5540 C   0  0  0  0  0  0  0  0  0  0  0  0
    6.3040    0.7840   30.7570 C   0  0  0  0  0  0  0  0  0  0  0  0
    7.6440   -3.1750   23.6770 C   0  0  0  0  0  0  0  0  0  0  0  0
    7.7700   -3.2580   22.1790 C   0  0  0  0  0  0  0  0  0  0  0  0
  1  2  1  0
  2  3  2  0
  2  4  1  0
  4  5  1  0
  5  6  1  0
  6  7  1  0
  7  8  1  0
  8  9  2  0
  8 10  1  0
 10 11  1  0
 11 12  1  0
 13 12  1  0
 13 14  1  0
 10 15  1  0
 14 15  1  0
 13 16  1  0
 13 17  1  0
 16 17  1  0
 17 18  1  1
 18 19  2  0
 18 20  1  0
 21 20  1  0
 21 22  1  0
 21 23  1  0
 21 24  1  0
  7 25  1  0
  4 26  1  0
 25 26  1  0
M  END
