piperidine-amides-32684-covalent
     RDKit          3D

 26 28  0  0  0  0  0  0  0  0999 V2000
    7.0420   -3.3870   19.4320 C   0  0  0  0  0  0  0  0  0  0  0  0
    6.3350   -4.2560   20.4040 C   0  0  0  0  0  0  0  0  0  0  0  0
    5.3720   -4.9250   20.0000 O   0  0  0  0  0  0  0  0  0  0  0  0
    6.8030   -4.3370   21.7380 N   0  0  0  0  0  0  0  0  0  0  0  0
    6.6830   -5.5780   22.4850 C   0  0  0  0  0  0  0  0  0  0  0  0
    6.1570   -5.2590   23.8970 C   0  0  0  0  0  0  0  0  0  0  0  0
    6.1790   -3.7820   24.0360 C   0  0  0  0  0  0  0  0  0  0  0  0
    5.6910   -3.2170   25.3310 C   0  0  0  0  0  0  0  0  0  0  0  0
    5.1680   -2.1060   25.2380 O   0  0  0  0  0  0  0  0  0  0  0  0
    5.7540   -3.8770   26.5760 N   0  0  0  0  0  0  0  0  0  0  0  0
    4.6250   -4.4180   27.2000 C   0  0  0  0  0  0  0  0  0  0  0  0
    4.3760   -4.2320   28.5430 C   0  0  0  0  0  0  0  0  0  0  0  0
    5.5500   -4.6760   29.2430 N   0  0  0  0  0  0  0  0  0  0  0  0
    5.1500   -6.1610   29.9920 S   0  0  0  0  0  0  0  0  0  0  0  0
    6.3230   -6.7410   30.7530 O   0  0  0  0  0  0  0  0  0  0  0  0
    4.7440   -7.1020   28.9060 O   0  0  0  0  0  0  0  0  0  0  0  0
    3.7800   -5.8340   31.0850 C   0  0  0  0  0  0  0  0  0  0  0  0
    3.1070   -6.8910   31.6690 C   0  0  0  0  0  0  0  0  0  0  0  0
    1.9950   -6.5130   32.5480 C   0  0  0  0  0  0  0  0  0  0  0  0
    1.7940   -5.0200   32.6500 C   0  0  0  0  0  0  0  0  0  0  0  0
    0.6420   -4.5830   33.5570 C   0  0  0  0  0  0  0  0  0  0  0  0
    3.0290   -4.3690   31.6300 S   0  0  0  0  0  0  0  0  0  0  0  0
    6.6790   -4.6150   28.5190 C   0  0  0  0  0  0  0  0  0  0  0  0
    6.4340   -3.3540   27.7380 C   0  0  0  0  0  0  0  0  0  0  0  0
    7.4790   -3.1590   23.6360 C   0  0  0  0  0  0  0  0  0  0  0  0
    7.6410   -3.2900   22.2820 C   0  0  0  0  0  0  0  0  0  0  0  0
  1  2  1  0
  2  3  2  0
  2  4  1  0
  4  5  1  0
  5  6  1  0
  6  7  1  0
  7  8  1  0
  8  9  2  0
  8 10  1  0
 10 11  1  0
 11 12  1  0
 12 13  1  0
 13 14  1  0
 14 15  2  0
 14 16  2  0
 14 17  1  0
 17 18  2  0
 18 19  1  0
 19 20  2  0
 20 21  1  0
 17 22  1  0
 20 22  1  0
 13 23  1  0
 10 24  1  0
 23 24  1  0
  7 25  1  0
  4 26  1  0
 25 26  1  0
M  END
