piperidine-amides-31439-covalent
     RDKit          3D

 26 28  0  0  0  0  0  0  0  0999 V2000
    7.2000   -3.3700   19.4170 C   0  0  0  0  0  0  0  0  0  0  0  0
    6.4620   -4.1830   20.3410 C   0  0  0  0  0  0  0  0  0  0  0  0
    5.3790   -4.7320   19.9560 O   0  0  0  0  0  0  0  0  0  0  0  0
    6.9590   -4.4250   21.6300 N   0  0  0  0  0  0  0  0  0  0  0  0
    6.5380   -5.6470   22.3330 C   0  0  0  0  0  0  0  0  0  0  0  0
    5.5460   -4.9830   23.3560 C   0  0  0  0  0  0  0  0  0  0  0  0
    6.3900   -3.9920   24.1230 C   0  0  0  0  0  0  0  0  0  0  0  0
    5.5660   -3.3270   25.2940 C   0  0  0  0  0  0  0  0  0  0  0  0
    4.8710   -2.4240   24.8630 O   0  0  0  0  0  0  0  0  0  0  0  0
    5.8230   -3.9050   26.3860 N   0  0  0  0  0  0  0  0  0  0  0  0
    5.9090   -4.8020   27.3710 C   0  0  0  0  0  0  0  0  0  0  0  0
    5.1290   -5.2320   28.3630 C   0  0  0  0  0  0  0  0  0  0  0  0
    5.4970   -4.4130   29.3880 C   0  0  0  0  0  0  0  0  0  0  0  0
    4.2190   -3.2670   29.8290 S   0  0  0  0  0  0  0  0  0  0  0  0
    3.5050   -2.8170   28.6220 O   0  0  0  0  0  0  0  0  0  0  0  0
    3.3050   -3.9510   30.7990 O   0  0  0  0  0  0  0  0  0  0  0  0
    4.9170   -1.8270   30.5640 N   0  0  0  0  0  0  0  0  0  0  0  0
    4.1860   -1.3310   31.6360 C   0  0  0  0  0  0  0  0  0  0  0  0
    4.2080    0.2140   31.5550 C   0  0  0  0  0  0  0  0  0  0  0  0
    4.9980    0.2310   30.3980 C   0  0  0  0  0  0  0  0  0  0  0  0
    6.3810    0.0320   30.5740 C   0  0  0  0  0  0  0  0  0  0  0  0
    5.7220   -1.0190   29.6760 C   0  0  0  0  0  0  0  0  0  0  0  0
    6.6110   -3.6370   28.7670 C   0  0  0  0  0  0  0  0  0  0  0  0
    6.2490   -3.1020   27.5320 C   0  0  0  0  0  0  0  0  0  0  0  0
    7.0930   -2.9180   23.3100 C   0  0  0  0  0  0  0  0  0  0  0  0
    7.7830   -3.4490   22.2890 C   0  0  0  0  0  0  0  0  0  0  0  0
  1  2  1  0
  2  3  2  0
  2  4  1  0
  4  5  1  0
  5  6  1  0
  6  7  1  0
  7  8  1  0
  8  9  2  0
  8 10  1  0
 10 11  1  0
 11 12  1  0
 12 13  1  0
 13 14  1  0
 14 15  2  0
 14 16  2  0
 14 17  1  0
 17 18  1  0
 18 19  1  0
 19 20  1  0
 20 21  1  0
 17 22  1  0
 21 22  1  0
 13 23  1  0
 10 24  1  0
 23 24  1  0
  7 25  1  0
  4 26  1  0
 25 26  1  0
M  END
