piperidine-amides-26925-covalent
     RDKit          3D

 24 26  0  0  0  0  0  0  0  0999 V2000
    7.0330   -3.3550   19.3990 C   0  0  0  0  0  0  0  0  0  0  0  0
    6.4010   -4.2440   20.3770 C   0  0  0  0  0  0  0  0  0  0  0  0
    5.3710   -4.8510   19.9830 O   0  0  0  0  0  0  0  0  0  0  0  0
    6.9530   -4.4440   21.6520 N   0  0  0  0  0  0  0  0  0  0  0  0
    6.6710   -5.6360   22.4260 C   0  0  0  0  0  0  0  0  0  0  0  0
    6.0490   -5.2220   23.7410 C   0  0  0  0  0  0  0  0  0  0  0  0
    5.7790   -3.7420   23.7700 C   0  0  0  0  0  0  0  0  0  0  0  0
    4.9590   -3.3520   24.9660 C   0  0  0  0  0  0  0  0  0  0  0  0
    3.7290   -3.3880   24.8260 O   0  0  0  0  0  0  0  0  0  0  0  0
    5.4020   -2.9490   26.2370 N   0  0  0  0  0  0  0  0  0  0  0  0
    4.7410   -3.5040   27.4120 C   0  0  0  0  0  0  0  0  0  0  0  0
    5.6250   -4.5980   27.9880 C   0  0  0  0  0  0  0  0  0  0  0  0
    6.9310   -4.5670   27.6310 C   0  0  0  0  0  0  0  0  0  0  0  0
    8.2280   -5.6140   27.9780 S   0  0  0  0  0  0  0  0  0  0  0  0
    9.3780   -4.5670   27.0740 C   0  0  0  0  0  0  0  0  0  0  0  0
   10.6370   -4.7900   27.1130 C   0  0  0  0  0  0  0  0  0  0  0  0
   10.6580   -4.8160   28.4930 O   0  0  0  0  0  0  0  0  0  0  0  0
   12.1240   -5.0860   26.4410 O   0  0  0  0  0  0  0  0  0  0  0  0
   13.6550   -4.3470   26.8790 C   0  0  0  0  0  0  0  0  0  0  0  0
    8.7370   -3.5510   26.5330 N   0  0  0  0  0  0  0  0  0  0  0  0
    7.4620   -3.5960   26.8730 C   0  0  0  0  0  0  0  0  0  0  0  0
    6.6960   -2.4840   26.3500 C   0  0  0  0  0  0  0  0  0  0  0  0
    7.0490   -2.9760   23.6070 C   0  0  0  0  0  0  0  0  0  0  0  0
    7.6440   -3.2980   22.2560 C   0  0  0  0  0  0  0  0  0  0  0  0
  1  2  1  0
  2  3  2  0
  2  4  1  0
  4  5  1  0
  5  6  1  0
  6  7  1  0
  7  8  1  0
  8  9  2  0
  8 10  1  0
 10 11  1  0
 11 12  1  0
 12 13  1  0
 13 14  1  0
 14 15  1  0
 15 16  1  0
 16 17  2  0
 16 18  1  0
 18 19  1  0
 15 20  2  0
 13 21  2  0
 20 21  1  0
 10 22  1  0
 21 22  1  0
  7 23  1  0
  4 24  1  0
 23 24  1  0
M  END
