piperidine-amides-11983-covalent
     RDKit          3D

 26 27  0  0  0  0  0  0  0  0999 V2000
    7.1030   -3.2640   19.2460 C   0  0  0  0  0  0  0  0  0  0  0  0
    6.3340   -4.0280   20.2240 C   0  0  0  0  0  0  0  0  0  0  0  0
    5.2900   -4.5850   19.8940 O   0  0  0  0  0  0  0  0  0  0  0  0
    6.8200   -4.1670   21.5650 N   0  0  0  0  0  0  0  0  0  0  0  0
    7.6100   -3.1180   22.1500 C   0  0  0  0  0  0  0  0  0  0  0  0
    6.9270   -2.5830   23.3770 C   0  0  0  0  0  0  0  0  0  0  0  0
    6.4440   -3.7640   24.2060 C   0  0  0  0  0  0  0  0  0  0  0  0
    5.6590   -3.2830   25.3850 C   0  0  0  0  0  0  0  0  0  0  0  0
    4.6360   -2.5780   25.2630 O   0  0  0  0  0  0  0  0  0  0  0  0
    6.0910   -3.6450   26.6890 N   0  0  0  0  0  0  0  0  0  0  0  0
    6.6380   -4.9680   26.8490 C   0  0  2  0  0  0  0  0  0  0  0  0
    5.5670   -5.8620   27.4200 C   0  0  0  0  0  0  0  0  0  0  0  0
    5.2480   -5.9950   28.7660 C   0  0  0  0  0  0  0  0  0  0  0  0
    5.9870   -6.9110   29.5840 C   0  0  0  0  0  0  0  0  0  0  0  0
    5.6840   -7.0880   30.9250 C   0  0  0  0  0  0  0  0  0  0  0  0
    4.6110   -6.3220   31.4640 C   0  0  0  0  0  0  0  0  0  0  0  0
    3.9110   -5.4560   30.7150 C   0  0  0  0  0  0  0  0  0  0  0  0
    4.2080   -5.2800   29.3840 C   0  0  0  0  0  0  0  0  0  0  0  0
    7.9130   -5.1820   27.1990 C   0  0  2  0  0  0  0  0  0  0  0  0
    8.4240   -4.3050   28.1040 O   0  0  0  0  0  0  0  0  0  0  0  0
    8.7560   -5.1420   26.0020 C   0  0  0  0  0  0  0  0  0  0  0  0
    9.9350   -5.7520   26.2430 F   0  0  0  0  0  0  0  0  0  0  0  0
    9.0140   -3.8530   25.5930 F   0  0  0  0  0  0  0  0  0  0  0  0
    8.1760   -5.8500   24.9750 F   0  0  0  0  0  0  0  0  0  0  0  0
    5.6390   -4.7760   23.3930 C   0  0  0  0  0  0  0  0  0  0  0  0
    6.4350   -5.2890   22.3690 C   0  0  0  0  0  0  0  0  0  0  0  0
  1  2  1  0
  2  3  2  0
  2  4  1  0
  4  5  1  0
  5  6  1  0
  6  7  1  0
  7  8  1  0
  8  9  2  0
  8 10  1  0
 10 11  1  0
 11 12  1  1
 12 13  1  0
 13 14  2  0
 14 15  1  0
 15 16  2  0
 16 17  1  0
 13 18  1  0
 17 18  2  0
 11 19  1  0
 19 20  1  1
 19 21  1  0
 21 22  1  0
 21 23  1  0
 21 24  1  0
  7 25  1  0
  4 26  1  0
 25 26  1  0
M  END
