piperidine-amides-1081-covalent
     RDKit          3D

 23 25  0  0  0  0  0  0  0  0999 V2000
    7.1830   -3.2770   19.2100 C   0  0  0  0  0  0  0  0  0  0  0  0
    6.3520   -4.0180   20.1880 C   0  0  0  0  0  0  0  0  0  0  0  0
    5.2450   -4.4610   19.8480 O   0  0  0  0  0  0  0  0  0  0  0  0
    6.8900   -4.2530   21.4590 N   0  0  0  0  0  0  0  0  0  0  0  0
    7.6940   -3.2870   22.1630 C   0  0  0  0  0  0  0  0  0  0  0  0
    6.8380   -2.7610   23.3090 C   0  0  0  0  0  0  0  0  0  0  0  0
    6.4370   -3.9410   24.1370 C   0  0  0  0  0  0  0  0  0  0  0  0
    5.5180   -3.5790   25.2200 C   0  0  0  0  0  0  0  0  0  0  0  0
    4.5400   -2.8860   24.9280 O   0  0  0  0  0  0  0  0  0  0  0  0
    5.7970   -4.0280   26.4960 N   0  0  0  0  0  0  0  0  0  0  0  0
    6.8640   -3.5730   27.2640 C   0  0  2  0  0  0  0  0  0  0  0  0
    6.8610   -3.5230   28.5830 C   0  0  0  0  0  0  0  0  0  0  0  0
    7.2400   -2.2370   28.4310 C   0  0  2  0  0  0  0  0  0  0  0  0
    8.4250   -1.8230   28.9300 C   0  0  0  0  0  0  0  0  0  0  0  0
    6.2120   -1.3380   29.0210 C   0  0  0  0  0  0  0  0  0  0  0  0
    6.1770    0.1240   28.5940 C   0  0  0  0  0  0  0  0  0  0  0  0
    5.1150    1.0000   29.2290 C   0  0  0  0  0  0  0  0  0  0  0  0
    4.2190    0.5060   30.1490 C   0  0  0  0  0  0  0  0  0  0  0  0
    4.1270   -0.8890   30.6620 C   0  0  0  0  0  0  0  0  0  0  0  0
    5.1980   -1.7790   30.0240 C   0  0  0  0  0  0  0  0  0  0  0  0
    7.2400   -2.2130   27.0050 C   0  0  0  0  0  0  0  0  0  0  0  0
    5.7560   -5.0610   23.4090 C   0  0  0  0  0  0  0  0  0  0  0  0
    6.5260   -5.4530   22.1810 C   0  0  0  0  0  0  0  0  0  0  0  0
  1  2  1  0
  2  3  2  0
  2  4  1  0
  4  5  1  0
  5  6  1  0
  6  7  1  0
  7  8  1  0
  8  9  2  0
  8 10  1  0
 11 10  1  6
 11 12  1  0
 12 13  1  0
 13 14  1  1
 13 15  1  0
 15 16  2  0
 16 17  1  0
 17 18  2  0
 18 19  1  0
 15 20  1  0
 19 20  2  0
 11 21  1  0
 13 21  1  0
  7 22  1  0
  4 23  1  0
 22 23  1  0
M  END
