piperidine-amides-34106-covalent
     RDKit          3D

 29 31  0  0  0  0  0  0  0  0999 V2000
    7.0780   -3.3560   19.3650 C   0  0  0  0  0  0  0  0  0  0  0  0
    6.4240   -4.2310   20.3450 C   0  0  0  0  0  0  0  0  0  0  0  0
    5.4130   -4.8900   20.0020 O   0  0  0  0  0  0  0  0  0  0  0  0
    6.9500   -4.3800   21.6440 N   0  0  0  0  0  0  0  0  0  0  0  0
    6.6090   -5.5280   22.4310 C   0  0  0  0  0  0  0  0  0  0  0  0
    5.6390   -5.0240   23.5040 C   0  0  0  0  0  0  0  0  0  0  0  0
    6.2590   -3.8290   24.2380 C   0  0  0  0  0  0  0  0  0  0  0  0
    5.1990   -3.2150   25.0970 C   0  0  0  0  0  0  0  0  0  0  0  0
    4.0200   -3.3270   24.7310 O   0  0  0  0  0  0  0  0  0  0  0  0
    5.5130   -2.5280   26.3000 N   0  0  0  0  0  0  0  0  0  0  0  0
    4.5010   -1.9780   27.1340 C   0  0  0  0  0  0  0  0  0  0  0  0
    5.0040   -2.0780   28.5630 C   0  0  0  0  0  0  0  0  0  0  0  0
    5.1420   -3.4630   28.8080 N   0  0  0  0  0  0  0  0  0  0  0  0
    3.9520   -4.2770   28.9520 C   0  0  2  0  0  0  0  0  0  0  0  0
    3.2040   -3.6410   29.9120 C   0  0  0  0  0  0  0  0  0  0  0  0
    1.8250   -3.7620   29.9880 O   0  0  0  0  0  0  0  0  0  0  0  0
    3.8670   -2.8690   30.8160 O   0  0  0  0  0  0  0  0  0  0  0  0
    3.3430   -2.7880   32.0840 C   0  0  0  0  0  0  0  0  0  0  0  0
    4.3400   -5.5600   29.1720 C   0  0  0  0  0  0  0  0  0  0  0  0
    3.5260   -6.8040   29.2890 C   0  0  0  0  0  0  0  0  0  0  0  0
    4.5980   -7.8570   29.5410 C   0  0  0  0  0  0  0  0  0  0  0  0
    6.1200   -8.0000   29.6960 C   0  0  0  0  0  0  0  0  0  0  0  0
    7.2130   -9.4010   30.0090 Cl  0  0  0  0  0  0  0  0  0  0  0  0
    6.4620   -6.6110   29.4990 C   0  0  0  0  0  0  0  0  0  0  0  0
    5.7090   -5.5230   29.2750 C   0  0  0  0  0  0  0  0  0  0  0  0
    6.2870   -3.9440   28.0840 C   0  0  0  0  0  0  0  0  0  0  0  0
    6.5820   -2.9020   27.0240 C   0  0  0  0  0  0  0  0  0  0  0  0
    6.7880   -2.7280   23.3330 C   0  0  0  0  0  0  0  0  0  0  0  0
    7.7130   -3.3370   22.2740 C   0  0  0  0  0  0  0  0  0  0  0  0
  1  2  1  0
  2  3  2  0
  2  4  1  0
  4  5  1  0
  5  6  1  0
  6  7  1  0
  7  8  1  0
  8  9  2  0
  8 10  1  0
 10 11  1  0
 11 12  1  0
 12 13  1  0
 13 14  1  0
 14 15  1  1
 15 16  2  0
 15 17  1  0
 17 18  1  0
 14 19  1  0
 19 20  2  0
 20 21  1  0
 21 22  2  0
 22 23  1  0
 22 24  1  0
 19 25  1  0
 24 25  2  0
 13 26  1  0
 10 27  1  0
 26 27  1  0
  7 28  1  0
  4 29  1  0
 28 29  1  0
M  END
