piperidine-amides-30159-covalent
     RDKit          3D

 27 30  0  0  0  0  0  0  0  0999 V2000
    7.0620   -3.3460   19.3100 C   0  0  0  0  0  0  0  0  0  0  0  0
    6.3820   -4.1660   20.3030 C   0  0  0  0  0  0  0  0  0  0  0  0
    5.3800   -4.8020   19.9790 O   0  0  0  0  0  0  0  0  0  0  0  0
    6.9080   -4.2770   21.6360 N   0  0  0  0  0  0  0  0  0  0  0  0
    7.7360   -3.2270   22.2000 C   0  0  0  0  0  0  0  0  0  0  0  0
    7.3540   -2.9370   23.6260 C   0  0  0  0  0  0  0  0  0  0  0  0
    5.9670   -3.5110   23.8270 C   0  0  0  0  0  0  0  0  0  0  0  0
    5.3870   -3.1000   25.1430 C   0  0  0  0  0  0  0  0  0  0  0  0
    4.1950   -2.7620   25.2480 O   0  0  0  0  0  0  0  0  0  0  0  0
    6.1910   -3.1000   26.3070 N   0  0  0  0  0  0  0  0  0  0  0  0
    6.6570   -1.7770   26.7900 C   0  0  2  0  0  0  0  0  0  0  0  0
    7.0970   -1.9290   28.2230 C   0  0  0  0  0  0  0  0  0  0  0  0
    6.9040   -0.8890   29.1240 C   0  0  0  0  0  0  0  0  0  0  0  0
    5.9780    0.1190   28.7860 C   0  0  1  0  0  0  0  0  0  0  0  0
    6.1990    1.2190   29.5950 C   0  0  0  0  0  0  0  0  0  0  0  0
    6.3490    2.4490   28.8220 C   0  0  0  0  0  0  0  0  0  0  0  0
    5.9340    0.4490   27.4630 C   0  0  0  0  0  0  0  0  0  0  0  0
    5.9220   -0.6270   26.5830 C   0  0  0  0  0  0  0  0  0  0  0  0
    6.6670   -4.3950   26.7510 C   0  0  0  0  0  0  0  0  0  0  0  0
    5.7120   -5.0100   27.6960 C   0  0  0  0  0  0  0  0  0  0  0  0
    4.8330   -4.3550   28.2950 C   0  0  0  0  0  0  0  0  0  0  0  0
    5.9280   -4.6200   29.1820 C   0  0  0  0  0  0  0  0  0  0  0  0
    7.9770   -4.4440   27.0990 C   0  0  0  0  0  0  0  0  0  0  0  0
    8.3710   -5.1940   28.1730 C   0  0  0  0  0  0  0  0  0  0  0  0
    8.8880   -5.5290   26.7380 C   0  0  0  0  0  0  0  0  0  0  0  0
    5.8870   -4.9910   23.6280 C   0  0  0  0  0  0  0  0  0  0  0  0
    6.5070   -5.3880   22.4440 C   0  0  0  0  0  0  0  0  0  0  0  0
  1  2  1  0
  2  3  2  0
  2  4  1  0
  4  5  1  0
  5  6  1  0
  6  7  1  0
  7  8  1  0
  8  9  2  0
  8 10  1  0
 11 10  1  1
 11 12  1  0
 12 13  1  0
 13 14  1  0
 14 15  1  1
 15 16  1  0
 14 17  1  0
 11 18  1  0
 17 18  1  0
 10 19  1  0
 19 20  1  0
 20 21  1  0
 20 22  1  0
 21 22  1  0
 19 23  1  0
 23 24  1  0
 23 25  1  0
 24 25  1  0
  7 26  1  0
  4 27  1  0
 26 27  1  0
M  END
