piperidine-amides-11487-covalent
     RDKit          3D

 24 25  0  0  0  0  0  0  0  0999 V2000
    7.1270   -3.3160   19.2920 C   0  0  0  0  0  0  0  0  0  0  0  0
    6.3630   -4.0830   20.2770 C   0  0  0  0  0  0  0  0  0  0  0  0
    5.2990   -4.6110   19.9130 O   0  0  0  0  0  0  0  0  0  0  0  0
    6.8280   -4.2900   21.5900 N   0  0  0  0  0  0  0  0  0  0  0  0
    6.6050   -5.5160   22.3070 C   0  0  0  0  0  0  0  0  0  0  0  0
    5.8400   -5.1220   23.5440 C   0  0  0  0  0  0  0  0  0  0  0  0
    6.4440   -3.9610   24.2950 C   0  0  0  0  0  0  0  0  0  0  0  0
    5.5290   -3.4730   25.3650 C   0  0  0  0  0  0  0  0  0  0  0  0
    4.3090   -3.2660   25.1000 O   0  0  0  0  0  0  0  0  0  0  0  0
    5.9280   -3.1870   26.6920 N   0  0  0  0  0  0  0  0  0  0  0  0
    5.7750   -4.1390   27.8310 C   0  0  2  0  0  0  0  0  0  0  0  0
    7.0810   -4.6620   28.0320 C   0  0  0  0  0  0  0  0  0  0  0  0
    7.4890   -6.2440   28.3400 S   0  0  0  0  0  0  0  0  0  0  0  0
    8.8580   -6.2860   27.2040 C   0  0  0  0  0  0  0  0  0  0  0  0
    4.8650   -5.3260   27.7280 C   0  0  0  0  0  0  0  0  0  0  0  0
    4.6280   -5.9760   26.5440 O   0  0  0  0  0  0  0  0  0  0  0  0
    4.1400   -5.9360   28.8090 N   0  0  0  0  0  0  0  0  0  0  0  0
    5.1710   -6.5160   29.6850 C   0  0  0  0  0  0  0  0  0  0  0  0
    4.6000   -6.7570   31.0410 C   0  0  0  0  0  0  0  0  0  0  0  0
    3.6850   -7.6990   30.8320 N   0  0  0  0  0  0  0  0  0  0  0  0
    2.8600   -7.6850   29.6430 C   0  0  0  0  0  0  0  0  0  0  0  0
    3.2480   -7.0280   28.4760 C   0  0  0  0  0  0  0  0  0  0  0  0
    6.7710   -2.7500   23.3920 C   0  0  0  0  0  0  0  0  0  0  0  0
    7.6230   -3.2690   22.2300 C   0  0  0  0  0  0  0  0  0  0  0  0
  1  2  1  0
  2  3  2  0
  2  4  1  0
  4  5  1  0
  5  6  1  0
  6  7  1  0
  7  8  1  0
  8  9  2  0
  8 10  1  0
 10 11  1  0
 11 12  1  6
 12 13  1  0
 13 14  1  0
 11 15  1  0
 15 16  2  0
 15 17  1  0
 17 18  1  0
 18 19  1  0
 19 20  1  0
 20 21  1  0
 17 22  1  0
 21 22  1  0
  7 23  1  0
  4 24  1  0
 23 24  1  0
M  END
