piperidine-amides-9051-covalent
     RDKit          3D

 21 22  0  0  0  0  0  0  0  0999 V2000
    7.0810   -3.2870   19.2400 C   0  0  0  0  0  0  0  0  0  0  0  0
    6.3480   -4.0390   20.2640 C   0  0  0  0  0  0  0  0  0  0  0  0
    5.3360   -4.6790   19.9310 O   0  0  0  0  0  0  0  0  0  0  0  0
    6.7890   -4.0880   21.6010 N   0  0  0  0  0  0  0  0  0  0  0  0
    7.7200   -3.1090   22.1450 C   0  0  0  0  0  0  0  0  0  0  0  0
    7.4520   -3.0390   23.6200 C   0  0  0  0  0  0  0  0  0  0  0  0
    6.0890   -3.5640   23.9250 C   0  0  0  0  0  0  0  0  0  0  0  0
    5.6290   -3.2590   25.3020 C   0  0  0  0  0  0  0  0  0  0  0  0
    4.3950   -3.3080   25.5670 O   0  0  0  0  0  0  0  0  0  0  0  0
    6.4890   -2.9000   26.3650 N   0  0  0  0  0  0  0  0  0  0  0  0
    6.5180   -1.5100   26.8700 C   0  0  0  0  0  0  0  0  0  0  0  0
    5.7440   -1.4490   28.1380 C   0  0  0  0  0  0  0  0  0  0  0  0
    6.2970   -0.6700   29.2460 C   0  0  0  0  0  0  0  0  0  0  0  0
    5.5290   -0.5890   30.5360 C   0  0  0  0  0  0  0  0  0  0  0  0
    6.2330    0.3710   31.8580 Cl  0  0  0  0  0  0  0  0  0  0  0  0
    4.2100   -1.3430   30.5880 C   0  0  0  0  0  0  0  0  0  0  0  0
    3.7810   -2.0970   29.3710 C   0  0  0  0  0  0  0  0  0  0  0  0
    1.9580   -3.1990   29.2980 I   0  0  0  0  0  0  0  0  0  0  0  0
    4.5530   -2.1120   28.2300 C   0  0  0  0  0  0  0  0  0  0  0  0
    5.9990   -5.0460   23.6600 C   0  0  0  0  0  0  0  0  0  0  0  0
    6.6630   -5.3420   22.3280 C   0  0  0  0  0  0  0  0  0  0  0  0
  1  2  1  0
  2  3  2  0
  2  4  1  0
  4  5  1  0
  5  6  1  0
  6  7  1  0
  7  8  1  0
  8  9  2  0
  8 10  1  0
 10 11  1  0
 11 12  1  0
 12 13  2  0
 13 14  1  0
 14 15  1  0
 14 16  2  0
 16 17  1  0
 17 18  1  0
 12 19  1  0
 17 19  2  0
  7 20  1  0
  4 21  1  0
 20 21  1  0
M  END
