piperidine-amides-14500-covalent
     RDKit          3D

 23 25  0  0  0  0  0  0  0  0999 V2000
    7.1000   -3.2800   19.2200 C   0  0  0  0  0  0  0  0  0  0  0  0
    6.3790   -4.0550   20.2310 C   0  0  0  0  0  0  0  0  0  0  0  0
    5.3060   -4.5870   19.8990 O   0  0  0  0  0  0  0  0  0  0  0  0
    6.9210   -4.2330   21.5270 N   0  0  0  0  0  0  0  0  0  0  0  0
    7.7100   -3.1800   22.1090 C   0  0  0  0  0  0  0  0  0  0  0  0
    6.9690   -2.6150   23.2710 C   0  0  0  0  0  0  0  0  0  0  0  0
    6.5740   -3.8050   24.0970 C   0  0  0  0  0  0  0  0  0  0  0  0
    5.8210   -3.3510   25.3070 C   0  0  0  0  0  0  0  0  0  0  0  0
    4.5970   -3.2850   25.2130 O   0  0  0  0  0  0  0  0  0  0  0  0
    6.5690   -3.0270   26.4270 N   0  0  0  0  0  0  0  0  0  0  0  0
    6.0790   -3.1590   27.7540 C   0  0  0  0  0  0  0  0  0  0  0  0
    6.0180   -4.4600   28.2790 C   0  0  0  0  0  0  0  0  0  0  0  0
    7.0320   -5.1250   28.9250 C   0  0  0  0  0  0  0  0  0  0  0  0
    6.4910   -6.3260   29.2460 O   0  0  0  0  0  0  0  0  0  0  0  0
    5.2500   -6.4380   28.8470 C   0  0  0  0  0  0  0  0  0  0  0  0
    4.3380   -7.5940   29.0140 C   0  0  0  0  0  0  0  0  0  0  0  0
    2.9130   -7.4190   28.4290 C   0  0  0  0  0  0  0  0  0  0  0  0
    2.4810   -6.1610   27.7380 C   0  0  0  0  0  0  0  0  0  0  0  0
    1.1640   -6.2090   27.2880 F   0  0  0  0  0  0  0  0  0  0  0  0
    3.4830   -5.0320   27.6140 C   0  0  0  0  0  0  0  0  0  0  0  0
    4.8810   -5.2730   28.2180 C   0  0  0  0  0  0  0  0  0  0  0  0
    5.6640   -4.7110   23.2990 C   0  0  0  0  0  0  0  0  0  0  0  0
    6.4750   -5.3170   22.3620 C   0  0  0  0  0  0  0  0  0  0  0  0
  1  2  1  0
  2  3  2  0
  2  4  1  0
  4  5  1  0
  5  6  1  0
  6  7  1  0
  7  8  1  0
  8  9  2  0
  8 10  1  0
 10 11  1  0
 11 12  1  0
 12 13  2  0
 13 14  1  0
 14 15  1  0
 15 16  1  0
 16 17  2  0
 17 18  1  0
 18 19  1  0
 18 20  2  0
 12 21  1  0
 15 21  2  0
 20 21  1  0
  7 22  1  0
  4 23  1  0
 22 23  1  0
M  END
