piperidine-amides-23456-covalent
     RDKit          3D

 24 26  0  0  0  0  0  0  0  0999 V2000
    7.0950   -3.3550   19.3960 C   0  0  0  0  0  0  0  0  0  0  0  0
    6.3930   -4.1670   20.4020 C   0  0  0  0  0  0  0  0  0  0  0  0
    5.4000   -4.8200   19.9880 O   0  0  0  0  0  0  0  0  0  0  0  0
    6.8440   -4.2520   21.7570 N   0  0  0  0  0  0  0  0  0  0  0  0
    7.7030   -3.2280   22.2720 C   0  0  0  0  0  0  0  0  0  0  0  0
    7.3840   -2.9100   23.6510 C   0  0  0  0  0  0  0  0  0  0  0  0
    6.1460   -3.5980   24.0250 C   0  0  0  0  0  0  0  0  0  0  0  0
    5.5430   -3.1690   25.3470 C   0  0  0  0  0  0  0  0  0  0  0  0
    4.3420   -2.8390   25.3190 O   0  0  0  0  0  0  0  0  0  0  0  0
    6.1790   -3.0940   26.6160 N   0  0  0  0  0  0  0  0  0  0  0  0
    6.1810   -4.1880   27.5260 C   0  0  0  0  0  0  0  0  0  0  0  0
    5.8700   -5.5530   27.0930 C   0  0  2  0  0  0  0  0  0  0  0  0
    4.9130   -5.6940   26.2710 O   0  0  0  0  0  0  0  0  0  0  0  0
    5.4640   -6.3040   28.3610 C   0  0  0  0  0  0  0  0  0  0  0  0
    6.2210   -6.5330   29.4790 C   0  0  0  0  0  0  0  0  0  0  0  0
    5.4740   -7.3450   30.6150 C   0  0  0  0  0  0  0  0  0  0  0  0
    4.0170   -7.8250   30.4490 C   0  0  0  0  0  0  0  0  0  0  0  0
    3.3980   -7.4460   29.1120 C   0  0  0  0  0  0  0  0  0  0  0  0
    4.0950   -6.7010   28.0800 C   0  0  0  0  0  0  0  0  0  0  0  0
    5.9340   -1.8760   27.3390 C   0  0  0  0  0  0  0  0  0  0  0  0
    6.8920   -0.9650   27.7640 C   0  0  0  0  0  0  0  0  0  0  0  0
    6.0660   -0.5550   26.5090 C   0  0  0  0  0  0  0  0  0  0  0  0
    6.1980   -5.0810   23.8170 C   0  0  0  0  0  0  0  0  0  0  0  0
    6.6150   -5.4540   22.5280 C   0  0  0  0  0  0  0  0  0  0  0  0
  1  2  1  0
  2  3  2  0
  2  4  1  0
  4  5  1  0
  5  6  1  0
  6  7  1  0
  7  8  1  0
  8  9  2  0
  8 10  1  0
 10 11  1  0
 11 12  1  0
 12 13  1  6
 12 14  1  0
 14 15  2  0
 15 16  1  0
 16 17  2  0
 17 18  1  0
 14 19  1  0
 18 19  2  0
 10 20  1  0
 20 21  1  0
 20 22  1  0
 21 22  1  0
  7 23  1  0
  4 24  1  0
 23 24  1  0
M  END
