piperidine-amides-519-covalent
     RDKit          3D

 27 29  0  0  0  0  0  0  0  0999 V2000
    7.0570   -3.2990   19.1670 C   0  0  0  0  0  0  0  0  0  0  0  0
    6.2960   -3.9830   20.1970 C   0  0  0  0  0  0  0  0  0  0  0  0
    5.2110   -4.5280   19.8590 O   0  0  0  0  0  0  0  0  0  0  0  0
    6.7170   -4.1290   21.5260 N   0  0  0  0  0  0  0  0  0  0  0  0
    7.6850   -3.1470   22.0630 C   0  0  0  0  0  0  0  0  0  0  0  0
    6.9690   -2.6430   23.3820 C   0  0  0  0  0  0  0  0  0  0  0  0
    5.6970   -3.4520   23.5790 C   0  0  0  0  0  0  0  0  0  0  0  0
    4.9480   -3.0120   24.9130 C   0  0  0  0  0  0  0  0  0  0  0  0
    4.0450   -2.2210   24.7040 O   0  0  0  0  0  0  0  0  0  0  0  0
    5.5020   -3.6160   25.8660 N   0  0  0  0  0  0  0  0  0  0  0  0
    6.1360   -4.2720   26.8500 C   0  0  0  0  0  0  0  0  0  0  0  0
    7.3680   -4.5510   27.2590 C   0  0  2  0  0  0  0  0  0  0  0  0
    7.7490   -3.9000   28.4410 C   0  0  0  0  0  0  0  0  0  0  0  0
    8.1800   -3.8970   26.2540 N   0  0  0  0  0  0  0  0  0  0  0  0
    9.3920   -3.7890   26.7770 C   0  0  0  0  0  0  0  0  0  0  0  0
    9.9100   -5.2170   26.9890 C   0  0  0  0  0  0  0  0  0  0  0  0
    9.3110   -6.1380   26.2170 N   0  0  0  0  0  0  0  0  0  0  0  0
    9.1190   -7.2160   26.9680 C   0  0  0  0  0  0  0  0  0  0  0  0
    8.0230   -6.8770   28.4720 C   0  0  0  0  0  0  0  0  0  0  0  0
    7.5840   -8.6390   29.5800 C   0  0  0  0  0  0  0  0  0  0  0  0
    8.3830  -10.3170   29.2220 C   0  0  0  0  0  0  0  0  0  0  0  0
    9.4350  -10.5990   28.0060 C   0  0  0  0  0  0  0  0  0  0  0  0
    9.8210   -9.0340   26.7460 C   0  0  0  0  0  0  0  0  0  0  0  0
    8.3450   -5.8580   25.3120 C   0  0  0  0  0  0  0  0  0  0  0  0
    8.1470   -4.5560   24.9880 C   0  0  0  0  0  0  0  0  0  0  0  0
    5.6870   -4.9410   23.4110 C   0  0  0  0  0  0  0  0  0  0  0  0
    6.4590   -5.3610   22.2090 C   0  0  0  0  0  0  0  0  0  0  0  0
  1  2  1  0
  2  3  2  0
  2  4  1  0
  4  5  1  0
  5  6  1  0
  6  7  1  0
  7  8  1  0
  8  9  2  0
  8 10  1  0
 10 11  1  0
 11 12  1  0
 12 13  1  1
 12 14  1  0
 14 15  1  0
 15 16  1  0
 16 17  1  0
 17 18  1  0
 18 19  2  0
 19 20  1  0
 20 21  2  0
 21 22  1  0
 18 23  1  0
 22 23  2  0
 17 24  1  0
 14 25  1  0
 24 25  1  0
  7 26  1  0
  4 27  1  0
 26 27  1  0
M  END
