piperidine-amides-23469-covalent
     RDKit          3D

 24 26  0  0  0  0  0  0  0  0999 V2000
    7.0600   -3.3710   19.3630 C   0  0  0  0  0  0  0  0  0  0  0  0
    6.4230   -4.2380   20.3660 C   0  0  0  0  0  0  0  0  0  0  0  0
    5.3850   -4.8400   19.9880 O   0  0  0  0  0  0  0  0  0  0  0  0
    6.9810   -4.4400   21.6630 N   0  0  0  0  0  0  0  0  0  0  0  0
    6.4640   -5.4800   22.4610 C   0  0  0  0  0  0  0  0  0  0  0  0
    6.0360   -5.0550   23.8000 C   0  0  0  0  0  0  0  0  0  0  0  0
    6.4400   -3.6950   24.2790 C   0  0  0  0  0  0  0  0  0  0  0  0
    5.3770   -3.1220   25.1940 C   0  0  0  0  0  0  0  0  0  0  0  0
    4.5070   -2.3930   24.7020 O   0  0  0  0  0  0  0  0  0  0  0  0
    5.3020   -3.3800   26.5820 N   0  0  0  0  0  0  0  0  0  0  0  0
    5.0100   -2.5120   27.6430 C   0  0  0  0  0  0  0  0  0  0  0  0
    5.3100   -3.0050   28.9910 C   0  0  0  0  0  0  0  0  0  0  0  0
    6.1880   -4.2550   28.8280 C   0  0  0  0  0  0  0  0  0  0  0  0
    5.5860   -5.2810   28.1820 C   0  0  2  0  0  0  0  0  0  0  0  0
    6.6070   -6.1590   28.8800 C   0  0  0  0  0  0  0  0  0  0  0  0
    5.5720   -6.7970   29.7610 C   0  0  0  0  0  0  0  0  0  0  0  0
    4.3890   -7.2460   29.3030 N   0  0  0  0  0  0  0  0  0  0  0  0
    3.4850   -7.8000   30.1020 C   0  0  0  0  0  0  0  0  0  0  0  0
    3.7530   -7.9480   31.5700 C   0  0  0  0  0  0  0  0  0  0  0  0
    5.0880   -7.4460   32.0930 C   0  0  0  0  0  0  0  0  0  0  0  0
    5.9600   -6.8660   31.0700 N   0  0  0  0  0  0  0  0  0  0  0  0
    6.0470   -4.4690   27.0070 C   0  0  0  0  0  0  0  0  0  0  0  0
    6.7470   -2.7430   23.1540 C   0  0  0  0  0  0  0  0  0  0  0  0
    7.6960   -3.4090   22.3800 C   0  0  0  0  0  0  0  0  0  0  0  0
  1  2  1  0
  2  3  2  0
  2  4  1  0
  4  5  1  0
  5  6  1  0
  6  7  1  0
  7  8  1  0
  8  9  2  0
  8 10  1  0
 10 11  1  0
 11 12  1  0
 12 13  1  0
 13 14  1  0
 14 15  1  6
 15 16  1  0
 16 17  2  0
 17 18  1  0
 18 19  2  0
 19 20  1  0
 16 21  1  0
 20 21  2  0
 10 22  1  0
 14 22  1  0
  7 23  1  0
  4 24  1  0
 23 24  1  0
M  END
