piperidine-amides-28905-covalent
     RDKit          3D

 26 28  0  0  0  0  0  0  0  0999 V2000
    7.0020   -3.3760   19.4090 C   0  0  0  0  0  0  0  0  0  0  0  0
    6.3610   -4.2820   20.3650 C   0  0  0  0  0  0  0  0  0  0  0  0
    5.3570   -4.9060   19.9840 O   0  0  0  0  0  0  0  0  0  0  0  0
    6.9010   -4.4740   21.6670 N   0  0  0  0  0  0  0  0  0  0  0  0
    6.5490   -5.6770   22.3910 C   0  0  0  0  0  0  0  0  0  0  0  0
    6.2200   -5.3960   23.8470 C   0  0  0  0  0  0  0  0  0  0  0  0
    5.9640   -3.9140   23.9810 C   0  0  0  0  0  0  0  0  0  0  0  0
    5.3950   -3.4610   25.3100 C   0  0  0  0  0  0  0  0  0  0  0  0
    4.5940   -2.5400   25.1960 O   0  0  0  0  0  0  0  0  0  0  0  0
    5.7140   -4.0210   26.5630 N   0  0  0  0  0  0  0  0  0  0  0  0
    6.9360   -4.6240   26.8400 C   0  0  0  0  0  0  0  0  0  0  0  0
    6.9350   -5.7890   27.5940 C   0  0  0  0  0  0  0  0  0  0  0  0
    5.9940   -5.4510   28.6730 N   0  0  0  0  0  0  0  0  0  0  0  0
    5.1100   -4.3480   28.7410 C   0  0  0  0  0  0  0  0  0  0  0  0
    4.4680   -4.3760   29.9560 O   0  0  0  0  0  0  0  0  0  0  0  0
    4.9760   -3.4470   27.6820 C   0  0  1  0  0  0  0  0  0  0  0  0
    5.4740   -2.1310   28.2130 C   0  0  0  0  0  0  0  0  0  0  0  0
    5.5280   -1.9630   29.7510 C   0  0  0  0  0  0  0  0  0  0  0  0
    6.0140   -0.6770   30.3020 C   0  0  0  0  0  0  0  0  0  0  0  0
    6.4420    0.4390   29.4110 C   0  0  0  0  0  0  0  0  0  0  0  0
    6.8940    1.6350   29.9360 F   0  0  0  0  0  0  0  0  0  0  0  0
    6.3430    0.1590   27.8930 C   0  0  0  0  0  0  0  0  0  0  0  0
    5.9060   -1.0030   27.2920 C   0  0  0  0  0  0  0  0  0  0  0  0
    5.9210   -0.9740   25.9190 F   0  0  0  0  0  0  0  0  0  0  0  0
    7.2700   -3.2780   23.7060 C   0  0  0  0  0  0  0  0  0  0  0  0
    7.6020   -3.3570   22.2550 C   0  0  0  0  0  0  0  0  0  0  0  0
  1  2  1  0
  2  3  2  0
  2  4  1  0
  4  5  1  0
  5  6  1  0
  6  7  1  0
  7  8  1  0
  8  9  2  0
  8 10  1  0
 10 11  1  0
 11 12  1  0
 12 13  1  0
 13 14  1  0
 14 15  2  0
 10 16  1  0
 14 16  1  0
 16 17  1  1
 17 18  2  0
 18 19  1  0
 19 20  2  0
 20 21  1  0
 20 22  1  0
 17 23  1  0
 22 23  2  0
 23 24  1  0
  7 25  1  0
  4 26  1  0
 25 26  1  0
M  END
