piperidine-amides-6702-covalent
     RDKit          3D

 23 24  0  0  0  0  0  0  0  0999 V2000
    7.1370   -3.2560   19.2110 C   0  0  0  0  0  0  0  0  0  0  0  0
    6.3900   -4.0390   20.2070 C   0  0  0  0  0  0  0  0  0  0  0  0
    5.3130   -4.5980   19.9010 O   0  0  0  0  0  0  0  0  0  0  0  0
    6.9010   -4.2250   21.4950 N   0  0  0  0  0  0  0  0  0  0  0  0
    7.6930   -3.1860   22.1180 C   0  0  0  0  0  0  0  0  0  0  0  0
    6.8180   -2.5640   23.2050 C   0  0  0  0  0  0  0  0  0  0  0  0
    6.4220   -3.6980   24.1310 C   0  0  0  0  0  0  0  0  0  0  0  0
    5.5610   -3.1480   25.1970 C   0  0  0  0  0  0  0  0  0  0  0  0
    4.3380   -3.0440   24.9620 O   0  0  0  0  0  0  0  0  0  0  0  0
    6.1020   -2.7490   26.4430 N   0  0  0  0  0  0  0  0  0  0  0  0
    7.2730   -3.3570   26.9920 C   0  0  0  0  0  0  0  0  0  0  0  0
    7.0470   -4.8310   27.2240 C   0  0  0  0  0  0  0  0  0  0  0  0
    5.7980   -5.3660   27.4410 C   0  0  0  0  0  0  0  0  0  0  0  0
    5.2530   -6.1300   26.4620 F   0  0  0  0  0  0  0  0  0  0  0  0
    5.7410   -6.1230   28.6220 F   0  0  0  0  0  0  0  0  0  0  0  0
    4.9440   -4.2870   27.7540 F   0  0  0  0  0  0  0  0  0  0  0  0
    7.7460   -5.5560   26.1090 C   0  0  0  0  0  0  0  0  0  0  0  0
    9.0580   -5.1260   25.9110 C   0  0  0  0  0  0  0  0  0  0  0  0
    9.5310   -4.3980   26.9410 O   0  0  0  0  0  0  0  0  0  0  0  0
    9.2420   -4.7020   28.2440 C   0  0  0  0  0  0  0  0  0  0  0  0
    7.8360   -5.2250   28.4230 C   0  0  0  0  0  0  0  0  0  0  0  0
    5.7370   -4.8300   23.4260 C   0  0  0  0  0  0  0  0  0  0  0  0
    6.5450   -5.3690   22.2970 C   0  0  0  0  0  0  0  0  0  0  0  0
  1  2  1  0
  2  3  2  0
  2  4  1  0
  4  5  1  0
  5  6  1  0
  6  7  1  0
  7  8  1  0
  8  9  2  0
  8 10  1  0
 10 11  1  0
 12 11  1  0
 12 13  1  0
 13 14  1  0
 13 15  1  0
 13 16  1  0
 12 17  1  0
 17 18  1  0
 18 19  1  0
 19 20  1  0
 12 21  1  0
 20 21  1  0
  7 22  1  0
  4 23  1  0
 22 23  1  0
M  END
