piperidine-amides-29484-covalent
     RDKit          3D

 27 30  0  0  0  0  0  0  0  0999 V2000
    7.0690   -3.2500   19.1460 C   0  0  0  0  0  0  0  0  0  0  0  0
    6.2330   -3.8900   20.1550 C   0  0  0  0  0  0  0  0  0  0  0  0
    5.2090   -4.4810   19.8320 O   0  0  0  0  0  0  0  0  0  0  0  0
    6.5930   -3.8940   21.5290 N   0  0  0  0  0  0  0  0  0  0  0  0
    7.4990   -2.8910   22.0710 C   0  0  0  0  0  0  0  0  0  0  0  0
    7.0630   -2.3410   23.4170 C   0  0  0  0  0  0  0  0  0  0  0  0
    6.5060   -3.4690   24.2730 C   0  0  0  0  0  0  0  0  0  0  0  0
    5.9280   -2.9930   25.5810 C   0  0  0  0  0  0  0  0  0  0  0  0
    4.7950   -2.4700   25.6450 O   0  0  0  0  0  0  0  0  0  0  0  0
    6.6740   -3.1620   26.8060 N   0  0  0  0  0  0  0  0  0  0  0  0
    6.0210   -2.7230   28.0370 C   0  0  0  0  0  0  0  0  0  0  0  0
    5.6530   -3.9540   28.8320 C   0  0  0  0  0  0  0  0  0  0  0  0
    4.4300   -4.0710   29.5030 C   0  0  0  0  0  0  0  0  0  0  0  0
    4.1020   -5.2320   30.2300 C   0  0  0  0  0  0  0  0  0  0  0  0
    5.0090   -6.2550   30.2670 C   0  0  0  0  0  0  0  0  0  0  0  0
    6.2530   -6.1020   29.5680 C   0  0  0  0  0  0  0  0  0  0  0  0
    6.5650   -4.9690   28.8710 C   0  0  0  0  0  0  0  0  0  0  0  0
    7.7290   -4.7550   28.1840 C   0  0  0  0  0  0  0  0  0  0  0  0
    7.5320   -4.3120   26.8940 C   0  0  1  0  0  0  0  0  0  0  0  0
    6.8610   -5.2700   26.0690 C   0  0  0  0  0  0  0  0  0  0  0  0
    6.4570   -6.1280   26.8600 O   0  0  0  0  0  0  0  0  0  0  0  0
    6.4800   -5.6960   25.0990 N   0  0  0  0  0  0  0  0  0  0  0  0
    7.6410   -5.7190   24.3240 C   0  0  0  0  0  0  0  0  0  0  0  0
    7.7340   -4.8430   23.5120 C   0  0  0  0  0  0  0  0  0  0  0  0
    7.3760   -6.2560   22.9990 C   0  0  0  0  0  0  0  0  0  0  0  0
    5.3990   -4.2190   23.5650 C   0  0  0  0  0  0  0  0  0  0  0  0
    5.9840   -4.8940   22.3420 C   0  0  0  0  0  0  0  0  0  0  0  0
  1  2  1  0
  2  3  2  0
  2  4  1  0
  4  5  1  0
  5  6  1  0
  6  7  1  0
  7  8  1  0
  8  9  2  0
  8 10  1  0
 10 11  1  0
 11 12  1  0
 12 13  2  0
 13 14  1  0
 14 15  2  0
 15 16  1  0
 12 17  1  0
 16 17  2  0
 17 18  1  0
 10 19  1  0
 18 19  1  0
 19 20  1  6
 20 21  2  0
 20 22  1  0
 22 23  1  0
 23 24  1  0
 23 25  1  0
 24 25  1  0
  7 26  1  0
  4 27  1  0
 26 27  1  0
M  END
