piperidine-amides-4211-covalent
     RDKit          3D

 26 27  0  0  0  0  0  0  0  0999 V2000
    7.1300   -3.2660   19.1800 C   0  0  0  0  0  0  0  0  0  0  0  0
    6.3780   -4.0120   20.2060 C   0  0  0  0  0  0  0  0  0  0  0  0
    5.2810   -4.5140   19.8660 O   0  0  0  0  0  0  0  0  0  0  0  0
    6.9030   -4.2060   21.5030 N   0  0  0  0  0  0  0  0  0  0  0  0
    7.6280   -3.1310   22.0830 C   0  0  0  0  0  0  0  0  0  0  0  0
    7.2250   -2.7600   23.4320 C   0  0  0  0  0  0  0  0  0  0  0  0
    6.6690   -3.8380   24.2770 C   0  0  0  0  0  0  0  0  0  0  0  0
    5.9460   -3.2200   25.4310 C   0  0  0  0  0  0  0  0  0  0  0  0
    4.7070   -3.0660   25.3730 O   0  0  0  0  0  0  0  0  0  0  0  0
    6.6530   -2.7980   26.5780 N   0  0  0  0  0  0  0  0  0  0  0  0
    7.0140   -3.5580   27.7150 C   0  0  2  0  0  0  0  0  0  0  0  0
    8.0930   -4.5230   27.6020 C   0  0  0  0  0  0  0  0  0  0  0  0
    7.5400   -5.7360   26.8410 C   0  0  0  0  0  0  0  0  0  0  0  0
    6.3710   -6.2810   27.3470 C   0  0  0  0  0  0  0  0  0  0  0  0
    6.8990   -6.4600   28.7790 C   0  0  0  0  0  0  0  0  0  0  0  0
    5.8800   -7.0880   29.7200 C   0  0  0  0  0  0  0  0  0  0  0  0
    4.5420   -7.3990   29.0220 C   0  0  0  0  0  0  0  0  0  0  0  0
    4.0870   -7.1930   27.6170 C   0  0  0  0  0  0  0  0  0  0  0  0
    5.1580   -6.5770   26.7860 C   0  0  0  0  0  0  0  0  0  0  0  0
    5.8090   -4.2350   28.2940 C   0  0  0  0  0  0  0  0  0  0  0  0
    5.1810   -3.2490   29.2270 C   0  0  0  0  0  0  0  0  0  0  0  0
    5.7250   -2.1340   29.4400 O   0  0  0  0  0  0  0  0  0  0  0  0
    3.9930   -3.4960   29.8960 O   0  0  0  0  0  0  0  0  0  0  0  0
    3.6470   -4.7980   30.3850 C   0  0  0  0  0  0  0  0  0  0  0  0
    5.8390   -4.8640   23.5660 C   0  0  0  0  0  0  0  0  0  0  0  0
    6.4800   -5.3270   22.2840 C   0  0  0  0  0  0  0  0  0  0  0  0
  1  2  1  0
  2  3  2  0
  2  4  1  0
  4  5  1  0
  5  6  1  0
  6  7  1  0
  7  8  1  0
  8  9  2  0
  8 10  1  0
 10 11  1  0
 11 12  1  6
 12 13  1  0
 13 14  1  0
 14 15  2  0
 15 16  1  0
 16 17  2  0
 17 18  1  0
 14 19  1  0
 18 19  2  0
 11 20  1  0
 20 21  1  0
 21 22  2  0
 21 23  1  0
 23 24  1  0
  7 25  1  0
  4 26  1  0
 25 26  1  0
M  END
