piperidine-amides-8365-covalent
     RDKit          3D

 24 25  0  0  0  0  0  0  0  0999 V2000
    7.0050   -3.3380   19.3530 C   0  0  0  0  0  0  0  0  0  0  0  0
    6.3460   -4.1770   20.3560 C   0  0  0  0  0  0  0  0  0  0  0  0
    5.4010   -4.8940   19.9860 O   0  0  0  0  0  0  0  0  0  0  0  0
    6.7950   -4.1940   21.7050 N   0  0  0  0  0  0  0  0  0  0  0  0
    7.6860   -3.1640   22.1650 C   0  0  0  0  0  0  0  0  0  0  0  0
    7.4810   -2.9800   23.6290 C   0  0  0  0  0  0  0  0  0  0  0  0
    6.1010   -3.5270   23.8890 C   0  0  0  0  0  0  0  0  0  0  0  0
    5.6470   -3.2180   25.2830 C   0  0  0  0  0  0  0  0  0  0  0  0
    4.4460   -3.3380   25.5060 O   0  0  0  0  0  0  0  0  0  0  0  0
    6.5990   -2.8160   26.2120 N   0  0  0  0  0  0  0  0  0  0  0  0
    6.4860   -1.6120   26.9670 C   0  0  0  0  0  0  0  0  0  0  0  0
    5.9580   -0.3910   26.4650 C   0  0  0  0  0  0  0  0  0  0  0  0
    5.8420    0.7880   27.1920 C   0  0  0  0  0  0  0  0  0  0  0  0
    5.3500    2.0250   26.8170 C   0  0  0  0  0  0  0  0  0  0  0  0
    6.3170    0.8080   28.6760 C   0  0  0  0  0  0  0  0  0  0  0  0
    6.2860    1.9910   29.6710 C   0  0  0  0  0  0  0  0  0  0  0  0
    7.4080    2.0840   30.2260 O   0  0  0  0  0  0  0  0  0  0  0  0
    5.2280    2.7420   29.8640 O   0  0  0  0  0  0  0  0  0  0  0  0
    4.3820    2.1580   30.7940 C   0  0  0  0  0  0  0  0  0  0  0  0
    6.8660   -0.4190   29.2360 C   0  0  0  0  0  0  0  0  0  0  0  0
    7.2470   -0.2640   30.5520 F   0  0  0  0  0  0  0  0  0  0  0  0
    6.9610   -1.6750   28.3750 C   0  0  0  0  0  0  0  0  0  0  0  0
    6.1050   -5.0370   23.7320 C   0  0  0  0  0  0  0  0  0  0  0  0
    6.6460   -5.3890   22.5040 C   0  0  0  0  0  0  0  0  0  0  0  0
  1  2  1  0
  2  3  2  0
  2  4  1  0
  4  5  1  0
  5  6  1  0
  6  7  1  0
  7  8  1  0
  8  9  2  0
  8 10  1  0
 10 11  1  0
 11 12  2  0
 12 13  1  0
 13 14  1  0
 13 15  2  0
 15 16  1  0
 16 17  2  0
 16 18  1  0
 18 19  1  0
 15 20  1  0
 20 21  1  0
 11 22  1  0
 20 22  2  0
  7 23  1  0
  4 24  1  0
 23 24  1  0
M  END
