piperidine-amides-35618-covalent
     RDKit          3D

 39 43  0  0  0  0  0  0  0  0999 V2000
    7.0460   -3.3570   19.3610 C   0  0  0  0  0  0  0  0  0  0  0  0
    6.4130   -4.2230   20.3890 C   0  0  0  0  0  0  0  0  0  0  0  0
    5.4480   -4.8930   20.0050 O   0  0  0  0  0  0  0  0  0  0  0  0
    6.9350   -4.2780   21.6980 N   0  0  0  0  0  0  0  0  0  0  0  0
    7.8180   -3.2400   22.2070 C   0  0  0  0  0  0  0  0  0  0  0  0
    7.4030   -2.8570   23.5940 C   0  0  0  0  0  0  0  0  0  0  0  0
    5.9800   -3.3530   23.7650 C   0  0  0  0  0  0  0  0  0  0  0  0
    5.2500   -2.5390   24.7740 C   0  0  0  0  0  0  0  0  0  0  0  0
    4.3240   -1.8430   24.3690 O   0  0  0  0  0  0  0  0  0  0  0  0
    5.4870   -2.4940   26.1550 N   0  0  0  0  0  0  0  0  0  0  0  0
    6.1410   -1.3720   26.7870 C   0  0  0  0  0  0  0  0  0  0  0  0
    7.1660   -1.4930   27.9200 C   0  0  0  0  0  0  0  0  0  0  0  0
    7.7680   -0.4300   28.5640 C   0  0  0  0  0  0  0  0  0  0  0  0
    7.4170    0.8200   28.1560 C   0  0  0  0  0  0  0  0  0  0  0  0
    7.8570    2.0330   28.6260 C   0  0  0  0  0  0  0  0  0  0  0  0
    7.6840    3.2780   27.7680 C   0  0  0  0  0  0  0  0  0  0  0  0
    8.8600    3.8170   27.3170 O   0  0  0  0  0  0  0  0  0  0  0  0
    6.4770    1.2010   27.1090 C   0  0  0  0  0  0  0  0  0  0  0  0
    5.8340    0.0630   26.4170 C   0  0  0  0  0  0  0  0  0  0  0  0
    4.2260   -2.5300   26.8650 C   0  0  0  0  0  0  0  0  0  0  0  0
    4.2150   -3.6010   27.7070 N   0  0  0  0  0  0  0  0  0  0  0  0
    3.3090   -3.5050   28.7400 C   0  0  0  0  0  0  0  0  0  0  0  0
    3.2240   -4.4180   29.8260 N   0  0  0  0  0  0  0  0  0  0  0  0
    4.4980   -4.9640   29.6220 C   0  0  0  0  0  0  0  0  0  0  0  0
    5.5460   -4.0550   28.9940 C   0  0  0  0  0  0  0  0  0  0  0  0
    6.9280   -4.5480   28.6550 C   0  0  0  0  0  0  0  0  0  0  0  0
    7.9810   -3.8960   28.0820 C   0  0  0  0  0  0  0  0  0  0  0  0
    7.1830   -5.9610   28.9880 C   0  0  0  0  0  0  0  0  0  0  0  0
    6.0770   -6.7560   29.6290 C   0  0  0  0  0  0  0  0  0  0  0  0
    6.1240   -8.1600   30.0440 C   0  0  0  0  0  0  0  0  0  0  0  0
    4.8320   -6.2440   29.9060 C   0  0  0  0  0  0  0  0  0  0  0  0
    2.7540   -3.6100   30.8360 N   0  0  0  0  0  0  0  0  0  0  0  0
    2.0510   -2.5390   30.2950 C   0  0  0  0  0  0  0  0  0  0  0  0
    2.4810   -2.5440   28.8940 C   0  0  0  0  0  0  0  0  0  0  0  0
    2.1780   -1.6920   27.6670 C   0  0  0  0  0  0  0  0  0  0  0  0
    1.0530   -1.1640   27.4970 O   0  0  0  0  0  0  0  0  0  0  0  0
    3.2560   -1.5780   26.7880 N   0  0  0  0  0  0  0  0  0  0  0  0
    6.0510   -4.8600   23.8850 C   0  0  0  0  0  0  0  0  0  0  0  0
    6.6130   -5.4000   22.5590 C   0  0  0  0  0  0  0  0  0  0  0  0
  1  2  1  0
  2  3  2  0
  2  4  1  0
  4  5  1  0
  5  6  1  0
  6  7  1  0
  7  8  1  0
  8  9  2  0
  8 10  1  0
 10 11  1  0
 11 12  2  0
 12 13  1  0
 13 14  2  0
 14 15  1  0
 15 16  1  0
 16 17  1  0
 14 18  1  0
 11 19  1  0
 18 19  2  0
 10 20  1  0
 20 21  1  0
 21 22  2  0
 22 23  1  0
 23 24  1  0
 24 25  2  0
 25 26  1  0
 26 27  1  0
 26 28  2  0
 28 29  1  0
 29 30  1  0
 24 31  1  0
 29 31  2  0
 23 32  1  0
 32 33  1  0
 22 34  1  0
 33 34  2  0
 34 35  1  0
 35 36  2  0
 20 37  2  0
 35 37  1  0
  7 38  1  0
  4 39  1  0
 38 39  1  0
M  END
