piperidine-amides-8592-covalent
     RDKit          3D

 23 24  0  0  0  0  0  0  0  0999 V2000
    7.0580   -3.2920   19.2980 C   0  0  0  0  0  0  0  0  0  0  0  0
    6.3440   -4.0890   20.2960 C   0  0  0  0  0  0  0  0  0  0  0  0
    5.3170   -4.6880   19.9320 O   0  0  0  0  0  0  0  0  0  0  0  0
    6.8390   -4.2080   21.6200 N   0  0  0  0  0  0  0  0  0  0  0  0
    7.6010   -3.1460   22.2130 C   0  0  0  0  0  0  0  0  0  0  0  0
    6.8760   -2.6090   23.4130 C   0  0  0  0  0  0  0  0  0  0  0  0
    6.3850   -3.7960   24.2200 C   0  0  0  0  0  0  0  0  0  0  0  0
    5.3410   -3.3350   25.2080 C   0  0  0  0  0  0  0  0  0  0  0  0
    4.2070   -3.7650   25.0290 O   0  0  0  0  0  0  0  0  0  0  0  0
    5.6780   -2.4650   26.2450 N   0  0  0  0  0  0  0  0  0  0  0  0
    6.6500   -2.7790   27.2200 C   0  0  0  0  0  0  0  0  0  0  0  0
    7.9040   -2.7180   26.6690 C   0  0  0  0  0  0  0  0  0  0  0  0
    8.5180   -1.5830   26.1580 C   0  0  0  0  0  0  0  0  0  0  0  0
    9.7570   -1.8330   25.6650 C   0  0  0  0  0  0  0  0  0  0  0  0
    9.8610   -3.2730   25.9270 C   0  0  0  0  0  0  0  0  0  0  0  0
   11.1110   -4.0180   25.5310 C   0  0  0  0  0  0  0  0  0  0  0  0
   10.9150   -5.1970   25.8560 O   0  0  0  0  0  0  0  0  0  0  0  0
   12.1500   -3.4910   24.9600 O   0  0  0  0  0  0  0  0  0  0  0  0
   13.2400   -3.5100   25.8100 C   0  0  0  0  0  0  0  0  0  0  0  0
   14.1240   -2.3530   25.6920 C   0  0  0  0  0  0  0  0  0  0  0  0
    8.7210   -3.7450   26.5310 O   0  0  0  0  0  0  0  0  0  0  0  0
    5.7540   -4.8990   23.4550 C   0  0  0  0  0  0  0  0  0  0  0  0
    6.5730   -5.3610   22.4460 C   0  0  0  0  0  0  0  0  0  0  0  0
  1  2  1  0
  2  3  2  0
  2  4  1  0
  4  5  1  0
  5  6  1  0
  6  7  1  0
  7  8  1  0
  8  9  2  0
  8 10  1  0
 10 11  1  0
 11 12  1  0
 12 13  2  0
 13 14  1  0
 14 15  2  0
 15 16  1  0
 16 17  2  0
 16 18  1  0
 18 19  1  0
 19 20  1  0
 12 21  1  0
 15 21  1  0
  7 22  1  0
  4 23  1  0
 22 23  1  0
M  END
