piperidine-amides-6467-covalent
     RDKit          3D

 25 27  0  0  0  0  0  0  0  0999 V2000
    7.1220   -3.3410   19.3420 C   0  0  0  0  0  0  0  0  0  0  0  0
    6.3970   -4.1660   20.3090 C   0  0  0  0  0  0  0  0  0  0  0  0
    5.3560   -4.7710   19.9680 O   0  0  0  0  0  0  0  0  0  0  0  0
    6.9140   -4.3280   21.6040 N   0  0  0  0  0  0  0  0  0  0  0  0
    6.4980   -5.4660   22.3770 C   0  0  0  0  0  0  0  0  0  0  0  0
    5.6690   -4.8860   23.5280 C   0  0  0  0  0  0  0  0  0  0  0  0
    6.5450   -3.8610   24.2310 C   0  0  0  0  0  0  0  0  0  0  0  0
    5.7740   -3.2660   25.3400 C   0  0  0  0  0  0  0  0  0  0  0  0
    4.5790   -2.9730   25.1290 O   0  0  0  0  0  0  0  0  0  0  0  0
    6.3770   -3.0400   26.5980 N   0  0  0  0  0  0  0  0  0  0  0  0
    6.3370   -1.7160   27.1580 C   0  0  0  0  0  0  0  0  0  0  0  0
    6.9520   -1.6370   28.5340 C   0  0  0  0  0  0  0  0  0  0  0  0
    6.9890   -0.4590   29.2160 C   0  0  0  0  0  0  0  0  0  0  0  0
    6.4490    0.6610   28.6180 C   0  0  0  0  0  0  0  0  0  0  0  0
    6.5490    1.7870   29.4240 F   0  0  0  0  0  0  0  0  0  0  0  0
    5.8740    0.6260   27.3410 C   0  0  0  0  0  0  0  0  0  0  0  0
    5.3710    1.7720   26.8310 N   0  0  0  0  0  0  0  0  0  0  0  0
    6.1160    2.6070   25.9440 C   0  0  0  0  0  0  0  0  0  0  0  0
    5.3450    3.8900   25.4890 C   0  0  0  0  0  0  0  0  0  0  0  0
    4.2980    2.8040   25.1650 C   0  0  0  0  0  0  0  0  0  0  0  0
    4.0790    1.8720   26.2840 C   0  0  0  0  0  0  0  0  0  0  0  0
    2.9990    1.2740   26.7170 O   0  0  0  0  0  0  0  0  0  0  0  0
    5.8170   -0.5540   26.6110 C   0  0  0  0  0  0  0  0  0  0  0  0
    6.9170   -2.7560   23.2930 C   0  0  0  0  0  0  0  0  0  0  0  0
    7.5990   -3.2360   22.2160 C   0  0  0  0  0  0  0  0  0  0  0  0
  1  2  1  0
  2  3  2  0
  2  4  1  0
  4  5  1  0
  5  6  1  0
  6  7  1  0
  7  8  1  0
  8  9  2  0
  8 10  1  0
 10 11  1  0
 11 12  2  0
 12 13  1  0
 13 14  2  0
 14 15  1  0
 14 16  1  0
 16 17  1  0
 17 18  1  0
 18 19  1  0
 19 20  1  0
 17 21  1  0
 20 21  1  0
 21 22  2  0
 11 23  1  0
 16 23  2  0
  7 24  1  0
  4 25  1  0
 24 25  1  0
M  END
