piperidine-amides-27390-covalent
     RDKit          3D

 26 29  0  0  0  0  0  0  0  0999 V2000
    7.0910   -3.3370   19.2680 C   0  0  0  0  0  0  0  0  0  0  0  0
    6.4310   -4.1710   20.2720 C   0  0  0  0  0  0  0  0  0  0  0  0
    5.3520   -4.7260   19.9420 O   0  0  0  0  0  0  0  0  0  0  0  0
    7.0370   -4.3700   21.5150 N   0  0  0  0  0  0  0  0  0  0  0  0
    6.7220   -5.5210   22.3130 C   0  0  0  0  0  0  0  0  0  0  0  0
    5.9480   -5.0360   23.5070 C   0  0  0  0  0  0  0  0  0  0  0  0
    6.6170   -3.8740   24.2010 C   0  0  0  0  0  0  0  0  0  0  0  0
    5.7350   -3.3290   25.2430 C   0  0  0  0  0  0  0  0  0  0  0  0
    4.9100   -2.4520   24.9220 O   0  0  0  0  0  0  0  0  0  0  0  0
    5.7490   -3.7630   26.5650 N   0  0  0  0  0  0  0  0  0  0  0  0
    4.7840   -4.6860   27.0330 C   0  0  0  0  0  0  0  0  0  0  0  0
    5.1970   -5.1900   28.4040 C   0  0  0  0  0  0  0  0  0  0  0  0
    5.5790   -4.3720   29.4160 C   0  0  0  0  0  0  0  0  0  0  0  0
    4.6880   -3.4580   29.9130 N   0  0  0  0  0  0  0  0  0  0  0  0
    3.3850   -3.4300   30.3150 N   0  0  0  0  0  0  0  0  0  0  0  0
    3.0780   -2.1640   30.7350 C   0  0  0  0  0  0  0  0  0  0  0  0
    4.1900   -1.3810   30.5980 C   0  0  0  0  0  0  0  0  0  0  0  0
    4.3820   -0.0430   30.8870 C   0  0  0  0  0  0  0  0  0  0  0  0
    5.6030    0.5930   30.6800 C   0  0  0  0  0  0  0  0  0  0  0  0
    6.8490   -0.0910   30.1210 C   0  0  0  0  0  0  0  0  0  0  0  0
    6.5590   -1.5570   29.8260 C   0  0  0  0  0  0  0  0  0  0  0  0
    5.1910   -2.1020   30.1060 C   0  0  0  0  0  0  0  0  0  0  0  0
    6.6920   -3.9380   28.5340 C   0  0  0  0  0  0  0  0  0  0  0  0
    6.3550   -3.0250   27.5680 C   0  0  0  0  0  0  0  0  0  0  0  0
    6.9240   -2.7690   23.2180 C   0  0  0  0  0  0  0  0  0  0  0  0
    7.8260   -3.3410   22.1530 C   0  0  0  0  0  0  0  0  0  0  0  0
  1  2  1  0
  2  3  2  0
  2  4  1  0
  4  5  1  0
  5  6  1  0
  6  7  1  0
  7  8  1  0
  8  9  2  0
  8 10  1  0
 10 11  1  0
 11 12  1  0
 12 13  1  0
 13 14  1  0
 14 15  1  0
 15 16  2  0
 16 17  1  0
 17 18  1  0
 18 19  2  0
 19 20  1  0
 20 21  2  0
 14 22  1  0
 17 22  2  0
 21 22  1  0
 13 23  1  0
 10 24  1  0
 23 24  1  0
  7 25  1  0
  4 26  1  0
 25 26  1  0
M  END
