piperidine-amides-27090-covalent
     RDKit          3D

 26 28  0  0  0  0  0  0  0  0999 V2000
    7.0770   -3.3400   19.3250 C   0  0  0  0  0  0  0  0  0  0  0  0
    6.4040   -4.1680   20.3310 C   0  0  0  0  0  0  0  0  0  0  0  0
    5.3530   -4.7520   19.9590 O   0  0  0  0  0  0  0  0  0  0  0  0
    6.9470   -4.3310   21.6120 N   0  0  0  0  0  0  0  0  0  0  0  0
    6.6150   -5.4850   22.4160 C   0  0  0  0  0  0  0  0  0  0  0  0
    5.9250   -5.0000   23.6670 C   0  0  0  0  0  0  0  0  0  0  0  0
    6.6600   -3.8600   24.3270 C   0  0  0  0  0  0  0  0  0  0  0  0
    5.8720   -3.3200   25.4540 C   0  0  0  0  0  0  0  0  0  0  0  0
    4.6690   -3.0370   25.2500 O   0  0  0  0  0  0  0  0  0  0  0  0
    6.4090   -3.1180   26.7380 N   0  0  0  0  0  0  0  0  0  0  0  0
    6.6180   -4.2690   27.5930 C   0  0  0  0  0  0  0  0  0  0  0  0
    6.4690   -1.7550   27.2540 C   0  0  0  0  0  0  0  0  0  0  0  0
    7.0550   -1.6060   28.4890 C   0  0  0  0  0  0  0  0  0  0  0  0
    7.1860   -0.3920   29.1250 C   0  0  0  0  0  0  0  0  0  0  0  0
    6.7150    0.7730   28.5330 C   0  0  0  0  0  0  0  0  0  0  0  0
    6.8340    1.9880   29.1700 O   0  0  0  0  0  0  0  0  0  0  0  0
    6.1040    2.1950   30.3620 C   0  0  0  0  0  0  0  0  0  0  0  0
    5.2540    1.2560   30.9680 C   0  0  0  0  0  0  0  0  0  0  0  0
    4.4320    1.3850   32.2400 C   0  0  0  0  0  0  0  0  0  0  0  0
    4.5590    2.7160   32.9370 C   0  0  0  0  0  0  0  0  0  0  0  0
    5.4500    3.7360   32.3250 C   0  0  0  0  0  0  0  0  0  0  0  0
    6.2460    3.5540   31.0540 C   0  0  0  0  0  0  0  0  0  0  0  0
    6.1240    0.6970   27.3020 C   0  0  0  0  0  0  0  0  0  0  0  0
    5.9950   -0.6500   26.6230 C   0  0  0  0  0  0  0  0  0  0  0  0
    6.8810   -2.7440   23.3500 C   0  0  0  0  0  0  0  0  0  0  0  0
    7.7340   -3.2590   22.2000 C   0  0  0  0  0  0  0  0  0  0  0  0
  1  2  1  0
  2  3  2  0
  2  4  1  0
  4  5  1  0
  5  6  1  0
  6  7  1  0
  7  8  1  0
  8  9  2  0
  8 10  1  0
 10 11  1  0
 10 12  1  0
 12 13  2  0
 13 14  1  0
 14 15  2  0
 15 16  1  0
 16 17  1  0
 17 18  2  0
 18 19  1  0
 19 20  2  0
 20 21  1  0
 17 22  1  0
 21 22  2  0
 15 23  1  0
 12 24  1  0
 23 24  2  0
  7 25  1  0
  4 26  1  0
 25 26  1  0
M  END
