piperidine-amides-511-covalent
     RDKit          3D

 27 29  0  0  0  0  0  0  0  0999 V2000
    7.1380   -3.2980   19.3940 C   0  0  0  0  0  0  0  0  0  0  0  0
    6.3580   -4.0540   20.3530 C   0  0  0  0  0  0  0  0  0  0  0  0
    5.3330   -4.6760   19.9310 O   0  0  0  0  0  0  0  0  0  0  0  0
    6.7150   -4.1590   21.7140 N   0  0  0  0  0  0  0  0  0  0  0  0
    7.7430   -3.1780   22.1860 C   0  0  0  0  0  0  0  0  0  0  0  0
    7.4120   -2.9000   23.7130 C   0  0  0  0  0  0  0  0  0  0  0  0
    6.3140   -3.8460   24.1060 C   0  0  0  0  0  0  0  0  0  0  0  0
    5.8150   -3.7060   25.6100 C   0  0  0  0  0  0  0  0  0  0  0  0
    5.2230   -4.7160   25.9270 O   0  0  0  0  0  0  0  0  0  0  0  0
    6.1130   -2.5820   26.1290 N   0  0  0  0  0  0  0  0  0  0  0  0
    6.2000   -1.3740   26.7530 C   0  0  0  0  0  0  0  0  0  0  0  0
    5.8820   -0.0830   26.4770 C   0  0  0  0  0  0  0  0  0  0  0  0
    6.0790    0.9880   27.3870 C   0  0  0  0  0  0  0  0  0  0  0  0
    6.6440    0.9470   28.7600 C   0  0  0  0  0  0  0  0  0  0  0  0
    7.0050   -0.5190   29.0530 C   0  0  0  0  0  0  0  0  0  0  0  0
    7.5690   -0.8060   30.3140 O   0  0  0  0  0  0  0  0  0  0  0  0
    7.9100    0.2200   31.2290 C   0  0  0  0  0  0  0  0  0  0  0  0
    9.3580    0.4190   31.2970 C   0  0  0  0  0  0  0  0  0  0  0  0
    9.4140    1.5560   32.3380 C   0  0  0  0  0  0  0  0  0  0  0  0
    8.3180    2.3020   33.1090 C   0  0  0  0  0  0  0  0  0  0  0  0
    8.5410    3.3090   34.0170 C   0  0  0  0  0  0  0  0  0  0  0  0
    9.6820    3.9180   33.6780 N   0  0  0  0  0  0  0  0  0  0  0  0
    6.9780    1.9140   32.8590 C   0  0  0  0  0  0  0  0  0  0  0  0
    6.8070    0.9320   31.9700 C   0  0  0  0  0  0  0  0  0  0  0  0
    6.7910   -1.5380   28.1250 C   0  0  0  0  0  0  0  0  0  0  0  0
    6.4610   -5.2830   23.7630 C   0  0  0  0  0  0  0  0  0  0  0  0
    6.6370   -5.4730   22.2990 C   0  0  0  0  0  0  0  0  0  0  0  0
  1  2  1  0
  2  3  2  0
  2  4  1  0
  4  5  1  0
  5  6  1  0
  6  7  1  0
  7  8  1  0
  8  9  2  0
  8 10  1  0
 10 11  1  0
 11 12  2  0
 12 13  1  0
 13 14  2  0
 14 15  1  0
 15 16  1  0
 16 17  1  0
 17 18  2  0
 18 19  1  0
 19 20  2  0
 20 21  1  0
 21 22  3  0
 20 23  1  0
 17 24  1  0
 23 24  2  0
 11 25  1  0
 15 25  2  0
  7 26  1  0
  4 27  1  0
 26 27  1  0
M  END
