piperidine-amides-23730-covalent
     RDKit          3D

 24 26  0  0  0  0  0  0  0  0999 V2000
    7.1120   -3.3170   19.2740 C   0  0  0  0  0  0  0  0  0  0  0  0
    6.4060   -4.1510   20.2570 C   0  0  0  0  0  0  0  0  0  0  0  0
    5.3010   -4.6310   19.9140 O   0  0  0  0  0  0  0  0  0  0  0  0
    6.9840   -4.4660   21.5070 N   0  0  0  0  0  0  0  0  0  0  0  0
    6.4960   -5.6080   22.1780 C   0  0  0  0  0  0  0  0  0  0  0  0
    5.8800   -5.2860   23.4500 C   0  0  0  0  0  0  0  0  0  0  0  0
    6.5120   -4.1620   24.1630 C   0  0  0  0  0  0  0  0  0  0  0  0
    5.6760   -3.8010   25.3470 C   0  0  0  0  0  0  0  0  0  0  0  0
    4.6550   -3.1050   25.1710 O   0  0  0  0  0  0  0  0  0  0  0  0
    5.9990   -4.2090   26.6480 N   0  0  0  0  0  0  0  0  0  0  0  0
    5.3670   -5.1320   27.3570 C   0  0  0  0  0  0  0  0  0  0  0  0
    4.8140   -4.4940   28.4410 C   0  0  0  0  0  0  0  0  0  0  0  0
    5.6940   -3.2440   28.7580 C   0  0  0  0  0  0  0  0  0  0  0  0
    5.6670   -2.4150   30.0320 C   0  0  0  0  0  0  0  0  0  0  0  0
    6.7100   -1.1860   30.0910 C   0  0  0  0  0  0  0  0  0  0  0  0
    6.8940   -0.2710   31.1200 O   0  0  0  0  0  0  0  0  0  0  0  0
    8.2340    0.0980   31.1690 C   0  0  0  0  0  0  0  0  0  0  0  0
    7.3840   -1.3030   28.8210 C   0  0  0  0  0  0  0  0  0  0  0  0
    6.6150   -2.3880   28.4560 C   0  0  0  0  0  0  0  0  0  0  0  0
    5.6980   -2.7650   29.3820 O   0  0  0  0  0  0  0  0  0  0  0  0
    4.3750   -2.2050   29.3600 C   0  0  0  0  0  0  0  0  0  0  0  0
    6.5780   -3.1370   27.3540 C   0  0  0  0  0  0  0  0  0  0  0  0
    6.7830   -2.9970   23.2670 C   0  0  0  0  0  0  0  0  0  0  0  0
    7.6700   -3.4630   22.2980 C   0  0  0  0  0  0  0  0  0  0  0  0
  1  2  1  0
  2  3  2  0
  2  4  1  0
  4  5  1  0
  5  6  1  0
  6  7  1  0
  7  8  1  0
  8  9  2  0
  8 10  1  0
 10 11  1  0
 11 12  1  0
 12 13  1  0
 13 14  1  0
 14 15  2  0
 15 16  1  0
 16 17  1  0
 15 18  1  0
 18 19  2  0
 19 20  1  0
 20 21  1  0
 10 22  1  0
 13 22  2  0
 19 22  1  0
  7 23  1  0
  4 24  1  0
 23 24  1  0
M  END
