piperidine-amides-28943-covalent
     RDKit          3D

 26 28  0  0  0  0  0  0  0  0999 V2000
    7.1260   -3.3360   19.2890 C   0  0  0  0  0  0  0  0  0  0  0  0
    6.4750   -4.1820   20.2770 C   0  0  0  0  0  0  0  0  0  0  0  0
    5.4090   -4.7460   19.9650 O   0  0  0  0  0  0  0  0  0  0  0  0
    7.1070   -4.3940   21.5270 N   0  0  0  0  0  0  0  0  0  0  0  0
    6.6880   -5.5120   22.2930 C   0  0  0  0  0  0  0  0  0  0  0  0
    5.6970   -5.0190   23.2930 C   0  0  0  0  0  0  0  0  0  0  0  0
    6.3410   -3.9000   24.0940 C   0  0  0  0  0  0  0  0  0  0  0  0
    5.3120   -3.2640   24.9620 C   0  0  0  0  0  0  0  0  0  0  0  0
    4.5160   -2.5090   24.4250 O   0  0  0  0  0  0  0  0  0  0  0  0
    5.3360   -3.5580   26.2950 N   0  0  0  0  0  0  0  0  0  0  0  0
    4.2470   -3.4450   27.1360 C   0  0  0  0  0  0  0  0  0  0  0  0
    4.6790   -3.0710   28.3920 C   0  0  0  0  0  0  0  0  0  0  0  0
    5.5400   -3.8950   29.0440 C   0  0  1  0  0  0  0  0  0  0  0  0
    5.2930   -5.2020   29.2120 C   0  0  0  0  0  0  0  0  0  0  0  0
    5.9870   -5.4660   28.0740 N   0  0  0  0  0  0  0  0  0  0  0  0
    5.2100   -6.2030   27.0750 C   0  0  0  0  0  0  0  0  0  0  0  0
    4.7640   -7.4660   27.3300 O   0  0  0  0  0  0  0  0  0  0  0  0
    4.8230   -5.6840   25.8270 O   0  0  0  0  0  0  0  0  0  0  0  0
    3.6210   -6.1490   25.1990 C   0  0  0  0  0  0  0  0  0  0  0  0
    3.0800   -5.1350   24.2460 C   0  0  0  0  0  0  0  0  0  0  0  0
    2.6430   -6.3140   26.3340 C   0  0  0  0  0  0  0  0  0  0  0  0
    3.7510   -7.4340   24.6700 C   0  0  0  0  0  0  0  0  0  0  0  0
    6.5780   -4.0960   27.9770 C   0  0  1  0  0  0  0  0  0  0  0  0
    6.4770   -3.1980   26.9420 C   0  0  0  0  0  0  0  0  0  0  0  0
    6.9640   -2.8080   23.2930 C   0  0  0  0  0  0  0  0  0  0  0  0
    7.8090   -3.3260   22.1820 C   0  0  0  0  0  0  0  0  0  0  0  0
  1  2  1  0
  2  3  2  0
  2  4  1  0
  4  5  1  0
  5  6  1  0
  6  7  1  0
  7  8  1  0
  8  9  2  0
  8 10  1  0
 10 11  1  0
 11 12  1  0
 13 12  1  6
 13 14  1  0
 14 15  1  0
 15 16  1  0
 16 17  2  0
 16 18  1  0
 19 18  1  0
 19 20  1  0
 19 21  1  0
 19 22  1  0
 13 23  1  0
 15 23  1  0
 10 24  1  0
 23 24  1  6
  7 25  1  0
  4 26  1  0
 25 26  1  0
M  END
