piperidine-amides-33695-covalent
     RDKit          3D

 24 26  0  0  0  0  0  0  0  0999 V2000
    7.0570   -3.4010   19.4180 C   0  0  0  0  0  0  0  0  0  0  0  0
    6.3920   -4.2400   20.4260 C   0  0  0  0  0  0  0  0  0  0  0  0
    5.4220   -4.9220   20.0100 O   0  0  0  0  0  0  0  0  0  0  0  0
    6.8580   -4.3150   21.7750 N   0  0  0  0  0  0  0  0  0  0  0  0
    6.6150   -5.5070   22.5210 C   0  0  0  0  0  0  0  0  0  0  0  0
    6.0470   -5.1990   23.8220 C   0  0  0  0  0  0  0  0  0  0  0  0
    5.8940   -3.7460   23.9770 C   0  0  0  0  0  0  0  0  0  0  0  0
    5.0080   -3.3160   25.1490 C   0  0  0  0  0  0  0  0  0  0  0  0
    3.8050   -3.1840   24.8970 O   0  0  0  0  0  0  0  0  0  0  0  0
    5.3750   -3.0560   26.4960 N   0  0  0  0  0  0  0  0  0  0  0  0
    6.6140   -3.1450   27.0060 C   0  0  0  0  0  0  0  0  0  0  0  0
    6.6620   -4.1290   28.0880 C   0  0  0  0  0  0  0  0  0  0  0  0
    5.1970   -4.0620   28.5130 C   0  0  0  0  0  0  0  0  0  0  0  0
    4.4480   -3.3950   27.5470 C   0  0  1  0  0  0  0  0  0  0  0  0
    4.2500   -2.2860   28.5900 C   0  0  0  0  0  0  0  0  0  0  0  0
    3.5690   -2.9720   29.7310 C   0  0  0  0  0  0  0  0  0  0  0  0
    3.3490   -1.8900   30.8210 C   0  0  0  0  0  0  0  0  0  0  0  0
    3.6950   -0.4070   30.8690 C   0  0  0  0  0  0  0  0  0  0  0  0
    3.3370    0.7650   32.3230 Br  0  0  0  0  0  0  0  0  0  0  0  0
    4.3770    0.0770   29.6070 C   0  0  0  0  0  0  0  0  0  0  0  0
    4.6670   -0.8530   28.4430 C   0  0  0  0  0  0  0  0  0  0  0  0
    5.4660   -0.2460   26.9860 Cl  0  0  0  0  0  0  0  0  0  0  0  0
    7.2160   -3.0720   23.7530 C   0  0  0  0  0  0  0  0  0  0  0  0
    7.6210   -3.2270   22.4000 C   0  0  0  0  0  0  0  0  0  0  0  0
  1  2  1  0
  2  3  2  0
  2  4  1  0
  4  5  1  0
  5  6  1  0
  6  7  1  0
  7  8  1  0
  8  9  2  0
  8 10  1  0
 10 11  1  0
 11 12  1  0
 12 13  1  0
 10 14  1  0
 13 14  1  0
 14 15  1  1
 15 16  2  0
 16 17  1  0
 17 18  2  0
 18 19  1  0
 18 20  1  0
 15 21  1  0
 20 21  2  0
 21 22  1  0
  7 23  1  0
  4 24  1  0
 23 24  1  0
M  END
