piperidine-amides-3376-covalent
     RDKit          3D

 21 22  0  0  0  0  0  0  0  0999 V2000
    7.0850   -3.2840   19.2730 C   0  0  0  0  0  0  0  0  0  0  0  0
    6.3590   -4.0790   20.2580 C   0  0  0  0  0  0  0  0  0  0  0  0
    5.3330   -4.6770   19.9330 O   0  0  0  0  0  0  0  0  0  0  0  0
    6.8600   -4.2110   21.5990 N   0  0  0  0  0  0  0  0  0  0  0  0
    6.5340   -5.3900   22.3630 C   0  0  0  0  0  0  0  0  0  0  0  0
    6.1160   -5.0550   23.7820 C   0  0  0  0  0  0  0  0  0  0  0  0
    5.8710   -3.5550   23.9140 C   0  0  0  0  0  0  0  0  0  0  0  0
    5.2850   -3.2240   25.2560 C   0  0  0  0  0  0  0  0  0  0  0  0
    4.0800   -3.4140   25.4890 O   0  0  0  0  0  0  0  0  0  0  0  0
    6.0740   -2.6830   26.3070 N   0  0  0  0  0  0  0  0  0  0  0  0
    6.5250   -3.5580   27.3580 C   0  0  1  0  0  0  0  0  0  0  0  0
    5.5450   -4.6650   27.6450 C   0  0  0  0  0  0  0  0  0  0  0  0
    7.6630   -4.2240   26.8120 C   0  0  0  0  0  0  0  0  0  0  0  0
    8.2010   -3.7020   25.6300 C   0  0  0  0  0  0  0  0  0  0  0  0
    9.2760   -4.3020   25.0580 C   0  0  0  0  0  0  0  0  0  0  0  0
    9.7920   -5.4510   25.7370 C   0  0  0  0  0  0  0  0  0  0  0  0
    9.2800   -5.9400   26.8490 C   0  0  0  0  0  0  0  0  0  0  0  0
    8.2170   -5.3290   27.3850 C   0  0  0  0  0  0  0  0  0  0  0  0
    7.7440   -5.9130   28.5450 O   0  0  0  0  0  0  0  0  0  0  0  0
    6.9720   -2.6830   23.4420 C   0  0  0  0  0  0  0  0  0  0  0  0
    7.5690   -3.1220   22.1840 C   0  0  0  0  0  0  0  0  0  0  0  0
  1  2  1  0
  2  3  2  0
  2  4  1  0
  4  5  1  0
  5  6  1  0
  6  7  1  0
  7  8  1  0
  8  9  2  0
  8 10  1  0
 10 11  1  0
 11 12  1  6
 11 13  1  0
 13 14  2  0
 14 15  1  0
 15 16  2  0
 16 17  1  0
 13 18  1  0
 17 18  2  0
 18 19  1  0
  7 20  1  0
  4 21  1  0
 20 21  1  0
M  END
