piperidine-amides-13488-covalent
     RDKit          3D

 23 25  0  0  0  0  0  0  0  0999 V2000
    7.1190   -3.3570   19.3140 C   0  0  0  0  0  0  0  0  0  0  0  0
    6.3920   -4.1700   20.3140 C   0  0  0  0  0  0  0  0  0  0  0  0
    5.3570   -4.7670   19.9710 O   0  0  0  0  0  0  0  0  0  0  0  0
    6.9470   -4.2820   21.6060 N   0  0  0  0  0  0  0  0  0  0  0  0
    7.7170   -3.2150   22.1820 C   0  0  0  0  0  0  0  0  0  0  0  0
    6.8400   -2.6500   23.2930 C   0  0  0  0  0  0  0  0  0  0  0  0
    6.6140   -3.7440   24.2820 C   0  0  0  0  0  0  0  0  0  0  0  0
    6.0410   -3.2070   25.5450 C   0  0  0  0  0  0  0  0  0  0  0  0
    4.9260   -3.6590   25.8420 O   0  0  0  0  0  0  0  0  0  0  0  0
    6.6950   -2.2370   26.3410 N   0  0  0  0  0  0  0  0  0  0  0  0
    5.9910   -1.3530   27.2190 C   0  0  1  0  0  0  0  0  0  0  0  0
    6.5230   -0.7150   28.3640 C   0  0  0  0  0  0  0  0  0  0  0  0
    7.0430   -1.4230   29.4570 C   0  0  0  0  0  0  0  0  0  0  0  0
    7.5460   -0.7960   30.5920 C   0  0  0  0  0  0  0  0  0  0  0  0
    7.5620    0.6590   30.7240 C   0  0  0  0  0  0  0  0  0  0  0  0
    7.0300    1.4920   29.6110 C   0  0  0  0  0  0  0  0  0  0  0  0
    6.5360    0.6290   28.4650 C   0  0  0  0  0  0  0  0  0  0  0  0
    6.0480    1.2060   27.3960 C   0  0  0  0  0  0  0  0  0  0  0  0
    6.2020    0.1960   26.3400 C   0  0  0  0  0  0  0  0  0  0  0  0
    4.8920   -0.4370   26.7080 C   0  0  1  0  0  0  0  0  0  0  0  0
    4.1940   -0.5670   25.5130 O   0  0  0  0  0  0  0  0  0  0  0  0
    5.7850   -4.7880   23.6320 C   0  0  0  0  0  0  0  0  0  0  0  0
    6.5970   -5.3790   22.4590 C   0  0  0  0  0  0  0  0  0  0  0  0
  1  2  1  0
  2  3  2  0
  2  4  1  0
  4  5  1  0
  5  6  1  0
  6  7  1  0
  7  8  1  0
  8  9  2  0
  8 10  1  0
 11 10  1  6
 11 12  1  0
 12 13  2  0
 13 14  1  0
 14 15  2  0
 15 16  1  0
 12 17  1  0
 16 17  2  0
 17 18  1  0
 18 19  1  0
 11 20  1  0
 19 20  1  0
 20 21  1  6
  7 22  1  0
  4 23  1  0
 22 23  1  0
M  END
