piperidine-amides-11017-covalent
     RDKit          3D

 21 22  0  0  0  0  0  0  0  0999 V2000
    7.0960   -3.2940   19.2400 C   0  0  0  0  0  0  0  0  0  0  0  0
    6.2810   -4.0110   20.2210 C   0  0  0  0  0  0  0  0  0  0  0  0
    5.2150   -4.5300   19.8640 O   0  0  0  0  0  0  0  0  0  0  0  0
    6.7030   -4.1780   21.5440 N   0  0  0  0  0  0  0  0  0  0  0  0
    6.5940   -5.4510   22.2180 C   0  0  0  0  0  0  0  0  0  0  0  0
    5.9260   -5.1740   23.5380 C   0  0  0  0  0  0  0  0  0  0  0  0
    5.9610   -3.7160   23.8800 C   0  0  0  0  0  0  0  0  0  0  0  0
    5.5840   -3.4230   25.2860 C   0  0  0  0  0  0  0  0  0  0  0  0
    4.3870   -3.5840   25.6630 O   0  0  0  0  0  0  0  0  0  0  0  0
    6.4880   -2.9410   26.2600 N   0  0  0  0  0  0  0  0  0  0  0  0
    7.4490   -3.8180   26.9650 C   0  0  1  0  0  0  0  0  0  0  0  0
    6.9750   -5.2100   27.0650 C   0  0  0  0  0  0  0  0  0  0  0  0
    7.7110   -5.9840   28.0740 C   0  0  0  0  0  0  0  0  0  0  0  0
    8.8270   -3.7300   26.3500 C   0  0  0  0  0  0  0  0  0  0  0  0
    9.0070   -2.6270   25.3500 C   0  0  0  0  0  0  0  0  0  0  0  0
   10.3350   -2.4770   24.7200 C   0  0  0  0  0  0  0  0  0  0  0  0
   11.3580   -3.3310   25.0610 C   0  0  0  0  0  0  0  0  0  0  0  0
   11.2410   -4.4310   26.0420 N   0  0  0  0  0  0  0  0  0  0  0  0
    9.9600   -4.6320   26.6840 C   0  0  0  0  0  0  0  0  0  0  0  0
    7.3200   -3.0830   23.5840 C   0  0  0  0  0  0  0  0  0  0  0  0
    7.5770   -3.1510   22.0800 C   0  0  0  0  0  0  0  0  0  0  0  0
  1  2  1  0
  2  3  2  0
  2  4  1  0
  4  5  1  0
  5  6  1  0
  6  7  1  0
  7  8  1  0
  8  9  2  0
  8 10  1  0
 10 11  1  0
 11 12  1  6
 12 13  1  0
 11 14  1  0
 14 15  2  0
 15 16  1  0
 16 17  2  0
 17 18  1  0
 14 19  1  0
 18 19  2  0
  7 20  1  0
  4 21  1  0
 20 21  1  0
M  END
