piperidine-amides-34289-covalent
     RDKit          3D

 30 32  0  0  0  0  0  0  0  0999 V2000
    7.0100   -3.3460   19.3340 C   0  0  0  0  0  0  0  0  0  0  0  0
    6.3420   -4.2140   20.3210 C   0  0  0  0  0  0  0  0  0  0  0  0
    5.3540   -4.8950   19.9800 O   0  0  0  0  0  0  0  0  0  0  0  0
    6.8160   -4.3190   21.6310 N   0  0  0  0  0  0  0  0  0  0  0  0
    6.6490   -5.5840   22.3250 C   0  0  0  0  0  0  0  0  0  0  0  0
    5.9650   -5.3020   23.6760 C   0  0  0  0  0  0  0  0  0  0  0  0
    5.9410   -3.8050   23.8320 C   0  0  0  0  0  0  0  0  0  0  0  0
    5.3530   -3.3640   25.1220 C   0  0  0  0  0  0  0  0  0  0  0  0
    4.6150   -2.3630   25.0990 O   0  0  0  0  0  0  0  0  0  0  0  0
    5.6080   -4.0350   26.3390 N   0  0  0  0  0  0  0  0  0  0  0  0
    6.9450   -4.1650   26.6500 C   0  0  0  0  0  0  0  0  0  0  0  0
    7.2820   -5.5420   27.1730 C   0  0  0  0  0  0  0  0  0  0  0  0
    6.0950   -6.2870   27.0230 O   0  0  0  0  0  0  0  0  0  0  0  0
    4.9270   -6.0450   27.6740 C   0  0  0  0  0  0  0  0  0  0  0  0
    4.8600   -4.9080   28.4360 C   0  0  2  0  0  0  0  0  0  0  0  0
    5.9240   -4.8660   29.3260 C   0  0  0  0  0  0  0  0  0  0  0  0
    5.7890   -5.7670   30.3630 O   0  0  0  0  0  0  0  0  0  0  0  0
    4.5180   -6.2120   30.8290 C   0  0  0  0  0  0  0  0  0  0  0  0
    3.4260   -5.9970   29.7900 C   0  0  0  0  0  0  0  0  0  0  0  0
    3.5320   -4.9370   28.9690 N   0  0  0  0  0  0  0  0  0  0  0  0
    2.4110   -4.2780   28.3650 C   0  0  0  0  0  0  0  0  0  0  0  0
    1.7190   -3.2230   28.9430 O   0  0  0  0  0  0  0  0  0  0  0  0
    1.9420   -4.7110   27.1080 O   0  0  0  0  0  0  0  0  0  0  0  0
    1.7080   -3.7790   26.0570 C   0  0  0  0  0  0  0  0  0  0  0  0
    2.0140   -2.4310   26.5440 C   0  0  0  0  0  0  0  0  0  0  0  0
    2.4610   -4.2150   24.9540 C   0  0  0  0  0  0  0  0  0  0  0  0
    0.2590   -3.8140   25.6080 C   0  0  0  0  0  0  0  0  0  0  0  0
    4.8750   -3.7330   27.5050 C   0  0  0  0  0  0  0  0  0  0  0  0
    7.3140   -3.2190   23.6790 C   0  0  0  0  0  0  0  0  0  0  0  0
    7.6240   -3.2570   22.1870 C   0  0  0  0  0  0  0  0  0  0  0  0
  1  2  1  0
  2  3  2  0
  2  4  1  0
  4  5  1  0
  5  6  1  0
  6  7  1  0
  7  8  1  0
  8  9  2  0
  8 10  1  0
 10 11  1  0
 11 12  1  0
 12 13  1  0
 13 14  1  0
 15 14  1  6
 15 16  1  0
 16 17  1  0
 17 18  1  0
 18 19  1  0
 15 20  1  0
 19 20  1  0
 20 21  1  0
 21 22  2  0
 21 23  1  0
 24 23  1  0
 24 25  1  0
 24 26  1  0
 24 27  1  0
 10 28  1  0
 15 28  1  0
  7 29  1  0
  4 30  1  0
 29 30  1  0
M  END
