piperidine-amides-4406-covalent
     RDKit          3D

 24 25  0  0  0  0  0  0  0  0999 V2000
    7.0150   -3.3530   19.3260 C   0  0  0  0  0  0  0  0  0  0  0  0
    6.3350   -4.2020   20.3220 C   0  0  0  0  0  0  0  0  0  0  0  0
    5.2930   -4.7780   19.9490 O   0  0  0  0  0  0  0  0  0  0  0  0
    6.8540   -4.4180   21.6210 N   0  0  0  0  0  0  0  0  0  0  0  0
    7.5140   -3.3310   22.2420 C   0  0  0  0  0  0  0  0  0  0  0  0
    7.0460   -3.0630   23.5870 C   0  0  0  0  0  0  0  0  0  0  0  0
    5.8990   -3.8790   24.0150 C   0  0  0  0  0  0  0  0  0  0  0  0
    5.3390   -3.4680   25.3620 C   0  0  0  0  0  0  0  0  0  0  0  0
    4.1060   -3.5270   25.5180 O   0  0  0  0  0  0  0  0  0  0  0  0
    6.1170   -3.0080   26.4580 N   0  0  0  0  0  0  0  0  0  0  0  0
    6.8790   -1.8150   26.5280 C   0  0  0  0  0  0  0  0  0  0  0  0
    7.9200   -1.7460   25.5030 C   0  0  0  0  0  0  0  0  0  0  0  0
    8.9570   -2.4520   25.6600 O   0  0  0  0  0  0  0  0  0  0  0  0
    7.8780   -0.9790   24.3480 O   0  0  0  0  0  0  0  0  0  0  0  0
    8.9640   -1.0300   23.4320 C   0  0  0  0  0  0  0  0  0  0  0  0
    6.0480   -0.5670   26.3720 C   0  0  0  0  0  0  0  0  0  0  0  0
    5.1410   -0.3530   27.6020 C   0  0  0  0  0  0  0  0  0  0  0  0
    6.1250    0.5080   28.3480 C   0  0  0  0  0  0  0  0  0  0  0  0
    6.6250    1.4610   27.4550 F   0  0  0  0  0  0  0  0  0  0  0  0
    5.5000    1.0980   29.3920 F   0  0  0  0  0  0  0  0  0  0  0  0
    6.8550   -0.7660   28.8410 C   0  0  0  0  0  0  0  0  0  0  0  0
    7.4470   -1.8050   27.9070 C   0  0  0  0  0  0  0  0  0  0  0  0
    6.2190   -5.3450   23.8410 C   0  0  0  0  0  0  0  0  0  0  0  0
    6.4510   -5.6080   22.3330 C   0  0  0  0  0  0  0  0  0  0  0  0
  1  2  1  0
  2  3  2  0
  2  4  1  0
  4  5  1  0
  5  6  1  0
  6  7  1  0
  7  8  1  0
  8  9  2  0
  8 10  1  0
 10 11  1  0
 11 12  1  0
 12 13  2  0
 12 14  1  0
 14 15  1  0
 11 16  1  0
 16 17  1  0
 17 18  1  0
 18 19  1  0
 18 20  1  0
 18 21  1  0
 11 22  1  0
 21 22  1  0
  7 23  1  0
  4 24  1  0
 23 24  1  0
M  END
