piperidine-amides-18933-covalent
     RDKit          3D

 21 22  0  0  0  0  0  0  0  0999 V2000
    7.0640   -3.3530   19.5080 C   0  0  0  0  0  0  0  0  0  0  0  0
    6.3820   -4.2050   20.4620 C   0  0  0  0  0  0  0  0  0  0  0  0
    5.4530   -4.9570   20.0120 O   0  0  0  0  0  0  0  0  0  0  0  0
    6.7230   -4.2520   21.8420 N   0  0  0  0  0  0  0  0  0  0  0  0
    6.6080   -5.5880   22.4960 C   0  0  0  0  0  0  0  0  0  0  0  0
    6.1980   -5.2680   24.0010 C   0  0  0  0  0  0  0  0  0  0  0  0
    6.1370   -3.7690   24.1430 C   0  0  0  0  0  0  0  0  0  0  0  0
    5.1910   -3.2070   25.3270 C   0  0  0  0  0  0  0  0  0  0  0  0
    4.2260   -2.6950   24.8000 O   0  0  0  0  0  0  0  0  0  0  0  0
    5.6300   -3.4100   26.5210 N   0  0  0  0  0  0  0  0  0  0  0  0
    6.3580   -3.5820   27.6030 C   0  0  0  0  0  0  0  0  0  0  0  0
    6.6070   -4.6630   28.4130 C   0  0  0  0  0  0  0  0  0  0  0  0
    5.4130   -4.9490   29.1170 C   0  0  0  0  0  0  0  0  0  0  0  0
    5.1870   -6.1910   29.9260 C   0  0  0  0  0  0  0  0  0  0  0  0
    5.2720   -7.3190   28.8810 C   0  0  0  0  0  0  0  0  0  0  0  0
    6.4280   -6.6500   29.1530 C   0  0  0  0  0  0  0  0  0  0  0  0
    5.6910   -6.3460   31.2100 F   0  0  0  0  0  0  0  0  0  0  0  0
    4.6690   -5.0540   27.8080 C   0  0  0  0  0  0  0  0  0  0  0  0
    4.5950   -3.5560   27.4880 C   0  0  0  0  0  0  0  0  0  0  0  0
    7.4200   -3.1250   23.7460 C   0  0  0  0  0  0  0  0  0  0  0  0
    7.6170   -3.2520   22.3920 C   0  0  0  0  0  0  0  0  0  0  0  0
  1  2  1  0
  2  3  2  0
  2  4  1  0
  4  5  1  0
  5  6  1  0
  6  7  1  0
  7  8  1  0
  8  9  2  0
  8 10  1  0
 10 11  1  0
 11 12  1  0
 12 13  1  0
 13 14  1  0
 14 15  1  0
 14 16  1  0
 14 17  1  0
 13 18  1  0
 10 19  1  0
 18 19  1  0
  7 20  1  0
  4 21  1  0
 20 21  1  0
M  END
