piperidine-amides-35048-covalent
     RDKit          3D

 32 35  0  0  0  0  0  0  0  0999 V2000
    6.9730   -3.3510   19.4010 C   0  0  0  0  0  0  0  0  0  0  0  0
    6.2890   -4.2620   20.3650 C   0  0  0  0  0  0  0  0  0  0  0  0
    5.3130   -4.8790   19.9650 O   0  0  0  0  0  0  0  0  0  0  0  0
    6.7700   -4.4170   21.6590 N   0  0  0  0  0  0  0  0  0  0  0  0
    7.4340   -3.3430   22.3160 C   0  0  0  0  0  0  0  0  0  0  0  0
    6.4350   -2.6510   23.1930 C   0  0  0  0  0  0  0  0  0  0  0  0
    5.5790   -3.7220   23.8720 C   0  0  0  0  0  0  0  0  0  0  0  0
    5.1750   -3.2630   25.2400 C   0  0  0  0  0  0  0  0  0  0  0  0
    3.9850   -3.0340   25.4720 O   0  0  0  0  0  0  0  0  0  0  0  0
    6.1220   -3.0860   26.2630 N   0  0  0  0  0  0  0  0  0  0  0  0
    7.4050   -3.4140   25.8050 C   0  0  0  0  0  0  0  0  0  0  0  0
    7.9030   -2.8380   24.7100 N   0  0  0  0  0  0  0  0  0  0  0  0
    9.0970   -3.1770   24.3590 C   0  0  0  0  0  0  0  0  0  0  0  0
    9.9450   -2.7770   23.3900 C   0  0  0  0  0  0  0  0  0  0  0  0
    9.6230   -1.9690   22.3520 C   0  0  0  0  0  0  0  0  0  0  0  0
   10.6110   -1.5930   21.5590 C   0  0  0  0  0  0  0  0  0  0  0  0
   11.9750   -2.0770   21.8300 C   0  0  0  0  0  0  0  0  0  0  0  0
   13.2810   -1.8790   21.1630 C   0  0  0  0  0  0  0  0  0  0  0  0
   12.6720   -2.9010   22.7850 C   0  0  0  0  0  0  0  0  0  0  0  0
   11.4410   -3.2210   23.5850 C   0  0  0  0  0  0  0  0  0  0  0  0
    9.7990   -4.1660   25.1850 C   0  0  0  0  0  0  0  0  0  0  0  0
    8.6360   -4.5290   26.4170 S   0  0  0  0  0  0  0  0  0  0  0  0
    6.3790   -1.8060   26.9980 C   0  0  0  0  0  0  0  0  0  0  0  0
    7.2520   -1.8640   28.2230 C   0  0  0  0  0  0  0  0  0  0  0  0
    7.5560   -0.6160   29.0360 C   0  0  0  0  0  0  0  0  0  0  0  0
    7.0190    0.5850   28.6350 C   0  0  0  0  0  0  0  0  0  0  0  0
    6.1530    0.6890   27.4260 C   0  0  0  0  0  0  0  0  0  0  0  0
    5.8580   -0.5720   26.6230 C   0  0  0  0  0  0  0  0  0  0  0  0
    5.1300   -0.5140   25.6040 O   0  0  0  0  0  0  0  0  0  0  0  0
    4.3690   -0.4510   24.5760 C   0  0  0  0  0  0  0  0  0  0  0  0
    6.1520   -5.1270   23.8600 C   0  0  0  0  0  0  0  0  0  0  0  0
    6.3530   -5.5920   22.3980 C   0  0  0  0  0  0  0  0  0  0  0  0
  1  2  1  0
  2  3  2  0
  2  4  1  0
  4  5  1  0
  5  6  1  0
  6  7  1  0
  7  8  1  0
  8  9  2  0
  8 10  1  0
 10 11  1  0
 11 12  2  0
 12 13  1  0
 13 14  1  0
 14 15  2  0
 15 16  1  0
 16 17  2  0
 17 18  1  0
 17 19  1  0
 14 20  1  0
 19 20  2  0
 13 21  2  0
 11 22  1  0
 21 22  1  0
 10 23  1  0
 23 24  2  0
 24 25  1  0
 25 26  2  0
 26 27  1  0
 23 28  1  0
 27 28  2  0
 28 29  1  0
 29 30  1  0
  7 31  1  0
  4 32  1  0
 31 32  1  0
M  END
