piperidine-amides-3912-covalent
     RDKit          3D

 21 22  0  0  0  0  0  0  0  0999 V2000
    7.0540   -3.3500   19.3030 C   0  0  0  0  0  0  0  0  0  0  0  0
    6.3930   -4.1740   20.3290 C   0  0  0  0  0  0  0  0  0  0  0  0
    5.3660   -4.8020   19.9720 O   0  0  0  0  0  0  0  0  0  0  0  0
    6.9250   -4.2930   21.6400 N   0  0  0  0  0  0  0  0  0  0  0  0
    6.5860   -5.4440   22.4120 C   0  0  0  0  0  0  0  0  0  0  0  0
    6.0710   -5.1020   23.7330 C   0  0  0  0  0  0  0  0  0  0  0  0
    6.1000   -3.6540   24.0000 C   0  0  0  0  0  0  0  0  0  0  0  0
    5.5780   -3.3140   25.3660 C   0  0  0  0  0  0  0  0  0  0  0  0
    4.3510   -3.3730   25.5610 O   0  0  0  0  0  0  0  0  0  0  0  0
    6.4130   -2.9290   26.4280 N   0  0  0  0  0  0  0  0  0  0  0  0
    6.6480   -1.6250   26.9410 C   0  0  1  0  0  0  0  0  0  0  0  0
    5.6460   -0.5360   26.8470 C   0  0  0  0  0  0  0  0  0  0  0  0
    5.9340    0.4380   27.9820 C   0  0  0  0  0  0  0  0  0  0  0  0
    6.5500   -0.3050   28.9350 C   0  0  1  0  0  0  0  0  0  0  0  0
    5.2120   -0.7050   29.6060 C   0  0  0  0  0  0  0  0  0  0  0  0
    4.0360   -0.5620   28.8750 O   0  0  0  0  0  0  0  0  0  0  0  0
    5.1560   -1.1980   30.9000 O   0  0  0  0  0  0  0  0  0  0  0  0
    4.1330   -0.6540   31.4910 C   0  0  0  0  0  0  0  0  0  0  0  0
    6.6950   -1.7100   28.5180 C   0  0  0  0  0  0  0  0  0  0  0  0
    7.4370   -3.0340   23.7010 C   0  0  0  0  0  0  0  0  0  0  0  0
    7.7330   -3.2270   22.2180 C   0  0  0  0  0  0  0  0  0  0  0  0
  1  2  1  0
  2  3  2  0
  2  4  1  0
  4  5  1  0
  5  6  1  0
  6  7  1  0
  7  8  1  0
  8  9  2  0
  8 10  1  0
 11 10  1  6
 11 12  1  0
 12 13  1  0
 13 14  1  0
 14 15  1  1
 15 16  2  0
 15 17  1  0
 17 18  1  0
 11 19  1  0
 14 19  1  0
  7 20  1  0
  4 21  1  0
 20 21  1  0
M  END
