piperidine-amides-11176-covalent
     RDKit          3D

 19 20  0  0  0  0  0  0  0  0999 V2000
    7.1100   -3.2690   19.2030 C   0  0  0  0  0  0  0  0  0  0  0  0
    6.3470   -4.0120   20.2050 C   0  0  0  0  0  0  0  0  0  0  0  0
    5.2790   -4.5560   19.8850 O   0  0  0  0  0  0  0  0  0  0  0  0
    6.8290   -4.1670   21.5120 N   0  0  0  0  0  0  0  0  0  0  0  0
    7.6760   -3.1860   22.1450 C   0  0  0  0  0  0  0  0  0  0  0  0
    6.9220   -2.7130   23.3520 C   0  0  0  0  0  0  0  0  0  0  0  0
    6.4800   -3.8720   24.1980 C   0  0  0  0  0  0  0  0  0  0  0  0
    5.7830   -3.4550   25.4400 C   0  0  0  0  0  0  0  0  0  0  0  0
    4.5200   -3.3310   25.4550 O   0  0  0  0  0  0  0  0  0  0  0  0
    6.4730   -3.1670   26.6410 N   0  0  0  0  0  0  0  0  0  0  0  0
    6.1830   -3.8670   27.9210 C   0  0  0  0  0  0  0  0  0  0  0  0
    6.1520   -5.3410   27.7180 C   0  0  0  0  0  0  0  0  0  0  0  0
    4.9830   -6.1150   28.1930 C   0  0  1  0  0  0  0  0  0  0  0  0
    5.3670   -7.3210   29.0290 C   0  0  0  0  0  0  0  0  0  0  0  0
    4.3700   -7.0280   30.1350 C   0  0  1  0  0  0  0  0  0  0  0  0
    4.9360   -6.6900   31.3880 O   0  0  0  0  0  0  0  0  0  0  0  0
    4.0190   -5.8190   29.3610 C   0  0  0  0  0  0  0  0  0  0  0  0
    5.6360   -4.7980   23.3550 C   0  0  0  0  0  0  0  0  0  0  0  0
    6.3650   -5.3020   22.2750 C   0  0  0  0  0  0  0  0  0  0  0  0
  1  2  1  0
  2  3  2  0
  2  4  1  0
  4  5  1  0
  5  6  1  0
  6  7  1  0
  7  8  1  0
  8  9  2  0
  8 10  1  0
 10 11  1  0
 11 12  1  0
 13 12  1  1
 13 14  1  0
 14 15  1  0
 15 16  1  1
 13 17  1  0
 15 17  1  0
  7 18  1  0
  4 19  1  0
 18 19  1  0
M  END
