piperidine-amides-29895-covalent
     RDKit          3D

 25 27  0  0  0  0  0  0  0  0999 V2000
    7.0510   -3.3510   19.3770 C   0  0  0  0  0  0  0  0  0  0  0  0
    6.3850   -4.2170   20.3430 C   0  0  0  0  0  0  0  0  0  0  0  0
    5.4070   -4.8780   19.9930 O   0  0  0  0  0  0  0  0  0  0  0  0
    6.9000   -4.3240   21.6860 N   0  0  0  0  0  0  0  0  0  0  0  0
    6.6980   -5.5550   22.4270 C   0  0  0  0  0  0  0  0  0  0  0  0
    6.2020   -5.2550   23.8180 C   0  0  0  0  0  0  0  0  0  0  0  0
    6.2530   -3.7540   23.9680 C   0  0  0  0  0  0  0  0  0  0  0  0
    5.6690   -3.2860   25.2600 C   0  0  0  0  0  0  0  0  0  0  0  0
    4.7720   -2.4270   25.2680 O   0  0  0  0  0  0  0  0  0  0  0  0
    6.0750   -3.7920   26.5180 N   0  0  0  0  0  0  0  0  0  0  0  0
    6.3370   -2.7510   27.4780 C   0  0  0  0  0  0  0  0  0  0  0  0
    6.8130   -3.3050   28.7980 C   0  0  0  0  0  0  0  0  0  0  0  0
    5.7430   -3.6520   29.5790 O   0  0  0  0  0  0  0  0  0  0  0  0
    4.9520   -4.6560   29.1820 C   0  0  0  0  0  0  0  0  0  0  0  0
    5.7500   -5.2740   28.2400 C   0  0  0  0  0  0  0  0  0  0  0  0
    5.3540   -4.9540   26.9620 C   0  0  0  0  0  0  0  0  0  0  0  0
    4.6760   -5.6900   30.2770 C   0  0  0  0  0  0  0  0  0  0  0  0
    3.8070   -5.1450   31.2210 C   0  0  0  0  0  0  0  0  0  0  0  0
    2.3650   -5.3000   30.3780 S   0  0  0  0  0  0  0  0  0  0  0  0
    1.9390   -6.7240   30.4190 O   0  0  0  0  0  0  0  0  0  0  0  0
    1.3000   -4.4460   31.0390 O   0  0  0  0  0  0  0  0  0  0  0  0
    2.6000   -4.7570   28.7490 C   0  0  0  0  0  0  0  0  0  0  0  0
    3.7890   -4.0340   28.7730 C   0  0  0  0  0  0  0  0  0  0  0  0
    7.5240   -3.1580   23.6360 C   0  0  0  0  0  0  0  0  0  0  0  0
    7.7130   -3.2690   22.2700 C   0  0  0  0  0  0  0  0  0  0  0  0
  1  2  1  0
  2  3  2  0
  2  4  1  0
  4  5  1  0
  5  6  1  0
  6  7  1  0
  7  8  1  0
  8  9  2  0
  8 10  1  0
 10 11  1  0
 11 12  1  0
 12 13  1  0
 14 13  1  0
 14 15  1  0
 10 16  1  0
 15 16  1  0
 14 17  1  0
 17 18  1  0
 19 18  1  0
 19 20  2  0
 19 21  2  0
 19 22  1  0
 14 23  1  0
 22 23  1  0
  7 24  1  0
  4 25  1  0
 24 25  1  0
M  END
