piperidine-amides-30230-covalent
     RDKit          3D

 27 30  0  0  0  0  0  0  0  0999 V2000
    7.1030   -3.3440   19.3220 C   0  0  0  0  0  0  0  0  0  0  0  0
    6.4290   -4.1980   20.2850 C   0  0  0  0  0  0  0  0  0  0  0  0
    5.3920   -4.7930   19.9720 O   0  0  0  0  0  0  0  0  0  0  0  0
    7.0200   -4.3950   21.5750 N   0  0  0  0  0  0  0  0  0  0  0  0
    7.7590   -3.3150   22.1730 C   0  0  0  0  0  0  0  0  0  0  0  0
    6.9910   -2.8040   23.3430 C   0  0  0  0  0  0  0  0  0  0  0  0
    6.7540   -3.9720   24.2840 C   0  0  0  0  0  0  0  0  0  0  0  0
    5.9750   -3.4850   25.4420 C   0  0  0  0  0  0  0  0  0  0  0  0
    4.8960   -2.8750   25.3080 O   0  0  0  0  0  0  0  0  0  0  0  0
    6.4670   -3.7320   26.7370 N   0  0  0  0  0  0  0  0  0  0  0  0
    6.9250   -5.0980   26.9820 C   0  0  0  0  0  0  0  0  0  0  0  0
    6.0890   -5.3060   28.1780 C   0  0  1  0  0  0  0  0  0  0  0  0
    6.0890   -6.2950   29.1170 C   0  0  0  0  0  0  0  0  0  0  0  0
    4.9180   -5.9040   29.8840 N   0  0  0  0  0  0  0  0  0  0  0  0
    4.8030   -6.5100   31.1850 C   0  0  0  0  0  0  0  0  0  0  0  0
    3.7080   -7.3320   31.3830 C   0  0  0  0  0  0  0  0  0  0  0  0
    2.6960   -7.3220   30.3570 N   0  0  0  0  0  0  0  0  0  0  0  0
    1.7810   -8.1810   30.7980 O   0  0  0  0  0  0  0  0  0  0  0  0
    2.2110   -8.6860   32.0210 C   0  0  0  0  0  0  0  0  0  0  0  0
    1.4330   -9.6060   32.6890 C   0  0  0  0  0  0  0  0  0  0  0  0
    0.1240   -9.2860   32.9710 C   0  0  0  0  0  0  0  0  0  0  0  0
    3.4120   -8.1530   32.3850 N   0  0  0  0  0  0  0  0  0  0  0  0
    4.6780   -4.5850   29.6410 C   0  0  0  0  0  0  0  0  0  0  0  0
    5.7650   -4.1470   28.7770 C   0  0  2  0  0  0  0  0  0  0  0  0
    5.7190   -3.1630   27.8240 C   0  0  0  0  0  0  0  0  0  0  0  0
    5.9530   -5.0600   23.6090 C   0  0  0  0  0  0  0  0  0  0  0  0
    6.6060   -5.5100   22.3440 C   0  0  0  0  0  0  0  0  0  0  0  0
  1  2  1  0
  2  3  2  0
  2  4  1  0
  4  5  1  0
  5  6  1  0
  6  7  1  0
  7  8  1  0
  8  9  2  0
  8 10  1  0
 10 11  1  0
 12 11  1  1
 12 13  1  0
 13 14  1  0
 14 15  1  0
 15 16  1  0
 16 17  2  0
 17 18  1  0
 18 19  1  0
 19 20  1  0
 20 21  1  0
 16 22  1  0
 19 22  2  0
 14 23  1  0
 12 24  1  0
 24 23  1  6
 10 25  1  0
 24 25  1  0
  7 26  1  0
  4 27  1  0
 26 27  1  0
M  END
