piperidine-amides-5390-covalent
     RDKit          3D

 20 21  0  0  0  0  0  0  0  0999 V2000
    7.0950   -3.2920   19.2470 C   0  0  0  0  0  0  0  0  0  0  0  0
    6.3710   -4.0480   20.2750 C   0  0  0  0  0  0  0  0  0  0  0  0
    5.3590   -4.6910   19.9450 O   0  0  0  0  0  0  0  0  0  0  0  0
    6.8250   -4.0920   21.6090 N   0  0  0  0  0  0  0  0  0  0  0  0
    7.7620   -3.1120   22.1250 C   0  0  0  0  0  0  0  0  0  0  0  0
    7.4970   -3.0120   23.6020 C   0  0  0  0  0  0  0  0  0  0  0  0
    6.1320   -3.5240   23.9200 C   0  0  0  0  0  0  0  0  0  0  0  0
    5.6690   -3.2220   25.2990 C   0  0  0  0  0  0  0  0  0  0  0  0
    4.4290   -3.1660   25.5430 O   0  0  0  0  0  0  0  0  0  0  0  0
    6.5350   -2.9810   26.3870 N   0  0  0  0  0  0  0  0  0  0  0  0
    6.2280   -3.5440   27.7230 C   0  0  0  0  0  0  0  0  0  0  0  0
    5.8520   -4.9640   27.5500 C   0  0  0  0  0  0  0  0  0  0  0  0
    5.9370   -5.7700   28.5090 O   0  0  0  0  0  0  0  0  0  0  0  0
    4.8170   -6.4500   28.8190 C   0  0  0  0  0  0  0  0  0  0  0  0
    4.0490   -6.8620   27.8460 O   0  0  0  0  0  0  0  0  0  0  0  0
    4.3590   -6.7720   30.2170 C   0  0  0  0  0  0  0  0  0  0  0  0
    3.3600   -7.7430   30.2500 C   0  0  0  0  0  0  0  0  0  0  0  0
    2.8600   -6.2780   30.2940 C   0  0  0  0  0  0  0  0  0  0  0  0
    6.0780   -5.0060   23.6240 C   0  0  0  0  0  0  0  0  0  0  0  0
    6.6120   -5.3130   22.3580 C   0  0  0  0  0  0  0  0  0  0  0  0
  1  2  1  0
  2  3  2  0
  2  4  1  0
  4  5  1  0
  5  6  1  0
  6  7  1  0
  7  8  1  0
  8  9  2  0
  8 10  1  0
 10 11  1  0
 11 12  1  0
 12 13  1  0
 13 14  1  0
 14 15  2  0
 14 16  1  0
 16 17  1  0
 16 18  1  0
 17 18  1  0
  7 19  1  0
  4 20  1  0
 19 20  1  0
M  END
