piperidine-amides-3035-covalent
     RDKit          3D

 23 25  0  0  0  0  0  0  0  0999 V2000
    7.0300   -3.3410   19.3480 C   0  0  0  0  0  0  0  0  0  0  0  0
    6.3470   -4.1570   20.3500 C   0  0  0  0  0  0  0  0  0  0  0  0
    5.3950   -4.8560   19.9930 O   0  0  0  0  0  0  0  0  0  0  0  0
    6.7960   -4.1820   21.7230 N   0  0  0  0  0  0  0  0  0  0  0  0
    7.6980   -3.1550   22.2030 C   0  0  0  0  0  0  0  0  0  0  0  0
    7.5670   -3.0050   23.6860 C   0  0  0  0  0  0  0  0  0  0  0  0
    6.2160   -3.5880   24.0390 C   0  0  0  0  0  0  0  0  0  0  0  0
    5.7940   -3.2640   25.4360 C   0  0  0  0  0  0  0  0  0  0  0  0
    4.6990   -3.6550   25.8810 O   0  0  0  0  0  0  0  0  0  0  0  0
    6.6220   -2.4740   26.2860 N   0  0  0  0  0  0  0  0  0  0  0  0
    5.9710   -1.4070   27.0280 C   0  0  2  0  0  0  0  0  0  0  0  0
    5.6920   -0.3430   26.0040 C   0  0  0  0  0  0  0  0  0  0  0  0
    5.4710    0.9380   26.4560 C   0  0  0  0  0  0  0  0  0  0  0  0
    5.4540    1.1970   27.8140 C   0  0  0  0  0  0  0  0  0  0  0  0
    6.2840    0.4640   28.5840 C   0  0  0  0  0  0  0  0  0  0  0  0
    6.8620    1.0550   29.7700 C   0  0  0  0  0  0  0  0  0  0  0  0
    7.7010    0.3760   30.5730 C   0  0  0  0  0  0  0  0  0  0  0  0
    8.2510    0.9130   31.6750 F   0  0  0  0  0  0  0  0  0  0  0  0
    7.9600   -0.9040   30.1850 C   0  0  0  0  0  0  0  0  0  0  0  0
    7.4390   -1.5420   29.0760 C   0  0  0  0  0  0  0  0  0  0  0  0
    6.5470   -0.8430   28.1940 C   0  0  0  0  0  0  0  0  0  0  0  0
    6.1330   -5.0830   23.7570 C   0  0  0  0  0  0  0  0  0  0  0  0
    6.6680   -5.3930   22.4980 C   0  0  0  0  0  0  0  0  0  0  0  0
  1  2  1  0
  2  3  2  0
  2  4  1  0
  4  5  1  0
  5  6  1  0
  6  7  1  0
  7  8  1  0
  8  9  2  0
  8 10  1  0
 11 10  1  6
 11 12  1  0
 12 13  1  0
 13 14  1  0
 14 15  1  0
 15 16  2  0
 16 17  1  0
 17 18  1  0
 17 19  2  0
 19 20  1  0
 11 21  1  0
 15 21  1  0
 20 21  2  0
  7 22  1  0
  4 23  1  0
 22 23  1  0
M  END
