piperidine-amides-4747-covalent
     RDKit          3D

 24 25  0  0  0  0  0  0  0  0999 V2000
    7.0620   -3.3320   19.3500 C   0  0  0  0  0  0  0  0  0  0  0  0
    6.4000   -4.1830   20.3670 C   0  0  0  0  0  0  0  0  0  0  0  0
    5.4040   -4.8340   19.9820 O   0  0  0  0  0  0  0  0  0  0  0  0
    6.9040   -4.2810   21.6770 N   0  0  0  0  0  0  0  0  0  0  0  0
    7.6950   -3.2320   22.2440 C   0  0  0  0  0  0  0  0  0  0  0  0
    7.3440   -2.9730   23.6270 C   0  0  0  0  0  0  0  0  0  0  0  0
    6.1040   -3.6710   24.0050 C   0  0  0  0  0  0  0  0  0  0  0  0
    5.6780   -3.2980   25.3790 C   0  0  0  0  0  0  0  0  0  0  0  0
    4.4640   -3.3820   25.6440 O   0  0  0  0  0  0  0  0  0  0  0  0
    6.5830   -2.8540   26.3630 N   0  0  0  0  0  0  0  0  0  0  0  0
    6.3870   -1.5700   27.0740 C   0  0  0  0  0  0  0  0  0  0  0  0
    6.1360   -0.3320   26.3180 C   0  0  0  0  0  0  0  0  0  0  0  0
    5.9300    0.9430   26.9670 C   0  0  0  0  0  0  0  0  0  0  0  0
    5.9620    1.0160   28.3360 C   0  0  0  0  0  0  0  0  0  0  0  0
    5.7630    2.2200   28.9290 F   0  0  0  0  0  0  0  0  0  0  0  0
    6.1850   -0.0660   29.1670 C   0  0  0  0  0  0  0  0  0  0  0  0
    6.2050    0.0590   30.8970 S   0  0  0  0  0  0  0  0  0  0  0  0
    5.2970   -0.9340   31.5090 O   0  0  0  0  0  0  0  0  0  0  0  0
    5.8770    1.4550   31.2660 O   0  0  0  0  0  0  0  0  0  0  0  0
    7.7460   -0.2400   31.4730 N   0  0  0  0  0  0  0  0  0  0  0  0
    8.5740   -0.5700   30.4850 C   0  0  0  0  0  0  0  0  0  0  0  0
    6.4150   -1.4260   28.5440 C   0  0  0  0  0  0  0  0  0  0  0  0
    6.0840   -5.1340   23.7130 C   0  0  0  0  0  0  0  0  0  0  0  0
    6.6620   -5.4670   22.4690 C   0  0  0  0  0  0  0  0  0  0  0  0
  1  2  1  0
  2  3  2  0
  2  4  1  0
  4  5  1  0
  5  6  1  0
  6  7  1  0
  7  8  1  0
  8  9  2  0
  8 10  1  0
 10 11  1  0
 11 12  2  0
 12 13  1  0
 13 14  2  0
 14 15  1  0
 14 16  1  0
 16 17  1  0
 17 18  2  0
 17 19  2  0
 17 20  1  0
 20 21  1  0
 11 22  1  0
 16 22  2  0
  7 23  1  0
  4 24  1  0
 23 24  1  0
M  END
