piperidine-amides-27367-covalent
     RDKit          3D

 26 28  0  0  0  0  0  0  0  0999 V2000
    7.0580   -3.2880   19.3050 C   0  0  0  0  0  0  0  0  0  0  0  0
    6.3480   -4.0830   20.3180 C   0  0  0  0  0  0  0  0  0  0  0  0
    5.2960   -4.6500   19.9240 O   0  0  0  0  0  0  0  0  0  0  0  0
    6.8440   -4.2320   21.6250 N   0  0  0  0  0  0  0  0  0  0  0  0
    6.6590   -5.4750   22.3420 C   0  0  0  0  0  0  0  0  0  0  0  0
    6.1640   -5.1660   23.7290 C   0  0  0  0  0  0  0  0  0  0  0  0
    6.0750   -3.6860   23.9760 C   0  0  0  0  0  0  0  0  0  0  0  0
    5.5620   -3.4370   25.3490 C   0  0  0  0  0  0  0  0  0  0  0  0
    4.3430   -3.6340   25.5260 O   0  0  0  0  0  0  0  0  0  0  0  0
    6.3180   -2.9860   26.4540 N   0  0  0  0  0  0  0  0  0  0  0  0
    6.8380   -1.6410   26.3680 C   0  0  0  0  0  0  0  0  0  0  0  0
    5.8610   -0.7260   25.6440 C   0  0  0  0  0  0  0  0  0  0  0  0
    6.2450    0.1460   24.6470 C   0  0  0  0  0  0  0  0  0  0  0  0
    5.3230    0.9490   24.0240 C   0  0  0  0  0  0  0  0  0  0  0  0
    3.9900    0.9470   24.3340 C   0  0  0  0  0  0  0  0  0  0  0  0
    3.6070    0.0800   25.3290 C   0  0  0  0  0  0  0  0  0  0  0  0
    4.5170   -0.7350   25.9670 C   0  0  0  0  0  0  0  0  0  0  0  0
    6.0950   -3.6090   27.7290 C   0  0  2  0  0  0  0  0  0  0  0  0
    5.8690   -5.1290   27.6970 C   0  0  0  0  0  0  0  0  0  0  0  0
    5.1580   -2.8760   28.4250 C   0  0  0  0  0  0  0  0  0  0  0  0
    3.7810   -2.4700   28.0310 C   0  0  0  0  0  0  0  0  0  0  0  0
    3.2290   -1.7610   29.0190 C   0  0  0  0  0  0  0  0  0  0  0  0
    4.2900   -1.7000   30.1110 C   0  0  0  0  0  0  0  0  0  0  0  0
    5.3620   -2.3440   29.7420 O   0  0  0  0  0  0  0  0  0  0  0  0
    7.3990   -3.0400   23.7160 C   0  0  0  0  0  0  0  0  0  0  0  0
    7.6620   -3.1690   22.2050 C   0  0  0  0  0  0  0  0  0  0  0  0
  1  2  1  0
  2  3  2  0
  2  4  1  0
  4  5  1  0
  5  6  1  0
  6  7  1  0
  7  8  1  0
  8  9  2  0
  8 10  1  0
 10 11  1  0
 11 12  1  0
 12 13  2  0
 13 14  1  0
 14 15  2  0
 15 16  1  0
 12 17  1  0
 16 17  2  0
 10 18  1  0
 18 19  1  6
 18 20  1  0
 20 21  2  0
 21 22  1  0
 22 23  2  0
 20 24  1  0
 23 24  1  0
  7 25  1  0
  4 26  1  0
 25 26  1  0
M  END
