piperidine-amides-35250-covalent
     RDKit          3D

 31 34  0  0  0  0  0  0  0  0999 V2000
    7.0820   -3.3260   19.3020 C   0  0  0  0  0  0  0  0  0  0  0  0
    6.3990   -4.1810   20.2990 C   0  0  0  0  0  0  0  0  0  0  0  0
    5.3600   -4.7410   19.9530 O   0  0  0  0  0  0  0  0  0  0  0  0
    6.9800   -4.3580   21.5540 N   0  0  0  0  0  0  0  0  0  0  0  0
    7.6880   -3.2760   22.1750 C   0  0  0  0  0  0  0  0  0  0  0  0
    6.8920   -2.8380   23.3610 C   0  0  0  0  0  0  0  0  0  0  0  0
    6.7210   -4.0250   24.3070 C   0  0  0  0  0  0  0  0  0  0  0  0
    5.9780   -3.5490   25.4860 C   0  0  0  0  0  0  0  0  0  0  0  0
    4.8970   -2.9570   25.3470 O   0  0  0  0  0  0  0  0  0  0  0  0
    6.5100   -3.8170   26.7540 N   0  0  0  0  0  0  0  0  0  0  0  0
    7.0420   -5.1570   26.8600 C   0  0  0  0  0  0  0  0  0  0  0  0
    6.8440   -5.3500   28.3040 C   0  0  0  0  0  0  0  0  0  0  0  0
    5.9620   -4.4500   28.7930 C   0  0  0  0  0  0  0  0  0  0  0  0
    5.8750   -3.3490   27.9780 C   0  0  1  0  0  0  0  0  0  0  0  0
    6.3650   -2.2250   28.6090 C   0  0  0  0  0  0  0  0  0  0  0  0
    6.1730   -1.1530   27.8640 N   0  0  0  0  0  0  0  0  0  0  0  0
    7.1750   -0.6550   27.1660 N   0  0  0  0  0  0  0  0  0  0  0  0
    6.6370    0.4430   26.5210 N   0  0  0  0  0  0  0  0  0  0  0  0
    5.3310    0.5490   26.8710 N   0  0  0  0  0  0  0  0  0  0  0  0
    4.9290   -0.4600   27.7550 C   0  0  0  0  0  0  0  0  0  0  0  0
    3.4870   -1.0180   28.6510 S   0  0  0  0  0  0  0  0  0  0  0  0
    3.2280    0.0470   30.0950 C   0  0  0  0  0  0  0  0  0  0  0  0
    2.5490    1.3470   29.7540 C   0  0  0  0  0  0  0  0  0  0  0  0
    1.1110    1.2160   29.4030 C   0  0  0  0  0  0  0  0  0  0  0  0
    0.4070    2.4910   29.0580 C   0  0  0  0  0  0  0  0  0  0  0  0
    1.1360    3.8360   29.0720 C   0  0  0  0  0  0  0  0  0  0  0  0
    0.3570    5.3500   28.6760 Cl  0  0  0  0  0  0  0  0  0  0  0  0
    2.5810    3.8020   29.4470 C   0  0  0  0  0  0  0  0  0  0  0  0
    3.2670    2.5070   29.7890 C   0  0  0  0  0  0  0  0  0  0  0  0
    5.9150   -5.0870   23.6020 C   0  0  0  0  0  0  0  0  0  0  0  0
    6.5650   -5.5040   22.3080 C   0  0  0  0  0  0  0  0  0  0  0  0
  1  2  1  0
  2  3  2  0
  2  4  1  0
  4  5  1  0
  5  6  1  0
  6  7  1  0
  7  8  1  0
  8  9  2  0
  8 10  1  0
 10 11  1  0
 11 12  1  0
 12 13  1  0
 10 14  1  0
 13 14  1  0
 14 15  1  1
 15 16  1  0
 16 17  1  0
 17 18  2  0
 18 19  1  0
 16 20  1  0
 19 20  2  0
 20 21  1  0
 21 22  1  0
 22 23  1  0
 23 24  2  0
 24 25  1  0
 25 26  2  0
 26 27  1  0
 26 28  1  0
 23 29  1  0
 28 29  2  0
  7 30  1  0
  4 31  1  0
 30 31  1  0
M  END
