piperidine-amides-6496-covalent
     RDKit          3D

 24 26  0  0  0  0  0  0  0  0999 V2000
    7.1700   -3.3040   19.3610 C   0  0  0  0  0  0  0  0  0  0  0  0
    6.4240   -4.1660   20.3430 C   0  0  0  0  0  0  0  0  0  0  0  0
    5.4890   -4.9520   20.0130 O   0  0  0  0  0  0  0  0  0  0  0  0
    6.8030   -4.1260   21.6690 N   0  0  0  0  0  0  0  0  0  0  0  0
    7.6580   -3.0950   22.1020 C   0  0  0  0  0  0  0  0  0  0  0  0
    7.2890   -2.5780   23.5660 C   0  0  0  0  0  0  0  0  0  0  0  0
    6.6090   -3.7180   24.4110 C   0  0  0  0  0  0  0  0  0  0  0  0
    5.6080   -3.0470   25.3140 C   0  0  0  0  0  0  0  0  0  0  0  0
    4.5320   -2.8020   24.8310 O   0  0  0  0  0  0  0  0  0  0  0  0
    6.0010   -2.6550   26.7250 N   0  0  0  0  0  0  0  0  0  0  0  0
    5.7570   -1.3930   27.4340 C   0  0  1  0  0  0  0  0  0  0  0  0
    6.5460   -1.7780   28.6890 C   0  0  0  0  0  0  0  0  0  0  0  0
    7.1890   -0.7500   29.3420 C   0  0  0  0  0  0  0  0  0  0  0  0
    7.7980   -0.0490   28.5960 O   0  0  0  0  0  0  0  0  0  0  0  0
    7.0600    0.0410   27.3850 C   0  0  0  0  0  0  0  0  0  0  0  0
    6.5050   -0.7310   27.8810 C   0  0  0  0  0  0  0  0  0  0  0  0
    5.8370   -1.6600   28.4780 C   0  0  0  0  0  0  0  0  0  0  0  0
    5.5150   -2.5520   29.6600 O   0  0  0  0  0  0  0  0  0  0  0  0
    4.3000   -3.2500   29.7290 C   0  0  0  0  0  0  0  0  0  0  0  0
    4.8250   -1.9190   27.3050 C   0  0  0  0  0  0  0  0  0  0  0  0
    4.9260   -1.0970   26.0070 C   0  0  0  0  0  0  0  0  0  0  0  0
    6.0830   -0.3550   26.5390 C   0  0  0  0  0  0  0  0  0  0  0  0
    5.7650   -4.6730   23.6670 C   0  0  0  0  0  0  0  0  0  0  0  0
    6.2780   -5.1780   22.5180 C   0  0  0  0  0  0  0  0  0  0  0  0
  1  2  1  0
  2  3  2  0
  2  4  1  0
  4  5  1  0
  5  6  1  0
  6  7  1  0
  7  8  1  0
  8  9  2  0
  8 10  1  0
 11 10  1  6
 11 12  1  0
 12 13  1  0
 13 14  1  0
 14 15  1  0
 15 16  2  0
 16 17  1  0
 17 18  1  0
 18 19  1  0
 17 20  2  0
 20 21  1  0
 11 22  1  0
 15 22  1  0
 21 22  2  0
  7 23  1  0
  4 24  1  0
 23 24  1  0
M  END
