piperidine-amides-12276-covalent
     RDKit          3D

 24 26  0  0  0  0  0  0  0  0999 V2000
    7.1120   -3.2910   19.2340 C   0  0  0  0  0  0  0  0  0  0  0  0
    6.3120   -3.9970   20.2270 C   0  0  0  0  0  0  0  0  0  0  0  0
    5.2650   -4.5440   19.8870 O   0  0  0  0  0  0  0  0  0  0  0  0
    6.7670   -4.1130   21.5820 N   0  0  0  0  0  0  0  0  0  0  0  0
    6.5970   -5.3760   22.2540 C   0  0  0  0  0  0  0  0  0  0  0  0
    6.1220   -5.1360   23.6540 C   0  0  0  0  0  0  0  0  0  0  0  0
    6.0540   -3.6350   23.8480 C   0  0  0  0  0  0  0  0  0  0  0  0
    5.5320   -3.3060   25.2060 C   0  0  0  0  0  0  0  0  0  0  0  0
    4.3410   -3.0000   25.4030 O   0  0  0  0  0  0  0  0  0  0  0  0
    6.4120   -3.3350   26.3070 N   0  0  0  0  0  0  0  0  0  0  0  0
    5.9790   -3.8780   27.5830 C   0  0  0  0  0  0  0  0  0  0  0  0
    5.0730   -5.0930   27.4010 C   0  0  0  0  0  0  0  0  0  0  0  0
    5.1710   -5.9370   26.3020 C   0  0  0  0  0  0  0  0  0  0  0  0
    4.3330   -7.0580   26.1610 C   0  0  0  0  0  0  0  0  0  0  0  0
    4.2540   -7.7150   24.9080 O   0  0  0  0  0  0  0  0  0  0  0  0
    3.6010   -7.5070   27.2720 N   0  0  0  0  0  0  0  0  0  0  0  0
    3.3450   -6.6220   28.3200 C   0  0  0  0  0  0  0  0  0  0  0  0
    2.3770   -6.7980   29.3950 C   0  0  0  0  0  0  0  0  0  0  0  0
    1.1080   -6.2060   29.3730 C   0  0  0  0  0  0  0  0  0  0  0  0
    1.2740   -5.4790   30.4820 C   0  0  0  0  0  0  0  0  0  0  0  0
    2.5260   -6.0180   30.5740 C   0  0  0  0  0  0  0  0  0  0  0  0
    4.1330   -5.3960   28.3310 N   0  0  0  0  0  0  0  0  0  0  0  0
    7.2750   -2.9230   23.5180 C   0  0  0  0  0  0  0  0  0  0  0  0
    7.6300   -3.1200   22.1930 C   0  0  0  0  0  0  0  0  0  0  0  0
  1  2  1  0
  2  3  2  0
  2  4  1  0
  4  5  1  0
  5  6  1  0
  6  7  1  0
  7  8  1  0
  8  9  2  0
  8 10  1  0
 10 11  1  0
 11 12  1  0
 12 13  2  0
 13 14  1  0
 14 15  2  0
 14 16  1  0
 16 17  1  0
 17 18  1  0
 18 19  1  0
 19 20  1  0
 18 21  1  0
 20 21  1  0
 12 22  1  0
 17 22  2  0
  7 23  1  0
  4 24  1  0
 23 24  1  0
M  END
