piperidine-amides-14747-covalent
     RDKit          3D

 22 23  0  0  0  0  0  0  0  0999 V2000
    7.0900   -3.3590   19.3600 C   0  0  0  0  0  0  0  0  0  0  0  0
    6.3950   -4.1790   20.3410 C   0  0  0  0  0  0  0  0  0  0  0  0
    5.3730   -4.7880   19.9740 O   0  0  0  0  0  0  0  0  0  0  0  0
    6.9270   -4.3020   21.6510 N   0  0  0  0  0  0  0  0  0  0  0  0
    7.7280   -3.2460   22.1970 C   0  0  0  0  0  0  0  0  0  0  0  0
    7.0020   -2.6470   23.3540 C   0  0  0  0  0  0  0  0  0  0  0  0
    6.5860   -3.8020   24.2290 C   0  0  0  0  0  0  0  0  0  0  0  0
    5.7770   -3.2850   25.3840 C   0  0  0  0  0  0  0  0  0  0  0  0
    4.5810   -3.0970   25.1670 O   0  0  0  0  0  0  0  0  0  0  0  0
    6.4170   -3.0580   26.5980 N   0  0  0  0  0  0  0  0  0  0  0  0
    6.4250   -1.7820   27.2470 C   0  0  0  0  0  0  0  0  0  0  0  0
    7.0090   -1.5280   28.5020 C   0  0  0  0  0  0  0  0  0  0  0  0
    6.9710   -0.2700   29.0710 C   0  0  0  0  0  0  0  0  0  0  0  0
    6.3500    0.7870   28.4120 C   0  0  0  0  0  0  0  0  0  0  0  0
    6.4400    2.0420   29.2210 C   0  0  0  0  0  0  0  0  0  0  0  0
    6.8820    3.2310   28.3310 C   0  0  0  0  0  0  0  0  0  0  0  0
    5.7450    0.6280   27.1670 C   0  0  0  0  0  0  0  0  0  0  0  0
    5.2090    1.6520   26.6630 O   0  0  0  0  0  0  0  0  0  0  0  0
    4.1760    1.3370   25.7810 C   0  0  0  0  0  0  0  0  0  0  0  0
    5.7840   -0.6140   26.6030 C   0  0  0  0  0  0  0  0  0  0  0  0
    5.6830   -4.7600   23.4630 C   0  0  0  0  0  0  0  0  0  0  0  0
    6.5130   -5.3580   22.5350 C   0  0  0  0  0  0  0  0  0  0  0  0
  1  2  1  0
  2  3  2  0
  2  4  1  0
  4  5  1  0
  5  6  1  0
  6  7  1  0
  7  8  1  0
  8  9  2  0
  8 10  1  0
 10 11  1  0
 11 12  2  0
 12 13  1  0
 13 14  2  0
 14 15  1  0
 15 16  1  0
 14 17  1  0
 17 18  1  0
 18 19  1  0
 11 20  1  0
 17 20  2  0
  7 21  1  0
  4 22  1  0
 21 22  1  0
M  END
