piperidine-amides-11635-covalent
     RDKit          3D

 31 34  0  0  0  0  0  0  0  0999 V2000
    7.0680   -3.2870   19.3080 C   0  0  0  0  0  0  0  0  0  0  0  0
    6.3890   -4.1270   20.2910 C   0  0  0  0  0  0  0  0  0  0  0  0
    5.3850   -4.7600   19.9620 O   0  0  0  0  0  0  0  0  0  0  0  0
    6.9060   -4.2580   21.6260 N   0  0  0  0  0  0  0  0  0  0  0  0
    7.8430   -3.2820   22.1520 C   0  0  0  0  0  0  0  0  0  0  0  0
    7.4740   -2.8530   23.5430 C   0  0  0  0  0  0  0  0  0  0  0  0
    6.1140   -3.4350   23.8540 C   0  0  0  0  0  0  0  0  0  0  0  0
    5.6780   -3.0030   25.2100 C   0  0  0  0  0  0  0  0  0  0  0  0
    4.5950   -2.4210   25.3890 O   0  0  0  0  0  0  0  0  0  0  0  0
    6.5290   -3.2220   26.3140 N   0  0  0  0  0  0  0  0  0  0  0  0
    6.0300   -3.8520   27.5230 C   0  0  0  0  0  0  0  0  0  0  0  0
    5.5780   -5.2690   27.2210 C   0  0  2  0  0  0  0  0  0  0  0  0
    4.5180   -5.3850   26.3310 C   0  0  0  0  0  0  0  0  0  0  0  0
    3.6470   -4.3210   26.0460 C   0  0  0  0  0  0  0  0  0  0  0  0
    2.6170   -4.5180   25.1400 C   0  0  0  0  0  0  0  0  0  0  0  0
    2.4110   -5.7990   24.4790 C   0  0  0  0  0  0  0  0  0  0  0  0
    1.4540   -5.9470   23.6470 O   0  0  0  0  0  0  0  0  0  0  0  0
    1.6190   -7.1010   22.8730 C   0  0  0  0  0  0  0  0  0  0  0  0
    3.2750   -6.7820   24.8010 C   0  0  0  0  0  0  0  0  0  0  0  0
    4.3070   -6.5810   25.7100 C   0  0  0  0  0  0  0  0  0  0  0  0
    5.2910   -5.9970   28.3490 C   0  0  0  0  0  0  0  0  0  0  0  0
    6.1920   -6.2530   29.3610 C   0  0  0  0  0  0  0  0  0  0  0  0
    5.6290   -7.0150   30.3870 N   0  0  0  0  0  0  0  0  0  0  0  0
    4.2980   -7.2400   29.9730 C   0  0  0  0  0  0  0  0  0  0  0  0
    3.1540   -7.9750   30.5940 C   0  0  0  0  0  0  0  0  0  0  0  0
    1.8010   -8.0740   29.9320 C   0  0  0  0  0  0  0  0  0  0  0  0
    1.6650   -7.3910   28.6170 C   0  0  0  0  0  0  0  0  0  0  0  0
    2.8310   -6.6690   28.0390 C   0  0  0  0  0  0  0  0  0  0  0  0
    4.0850   -6.6020   28.6930 C   0  0  0  0  0  0  0  0  0  0  0  0
    6.0620   -4.9130   23.7250 C   0  0  0  0  0  0  0  0  0  0  0  0
    6.6190   -5.4160   22.4440 C   0  0  0  0  0  0  0  0  0  0  0  0
  1  2  1  0
  2  3  2  0
  2  4  1  0
  4  5  1  0
  5  6  1  0
  6  7  1  0
  7  8  1  0
  8  9  2  0
  8 10  1  0
 10 11  1  0
 12 11  1  1
 12 13  1  0
 13 14  2  0
 14 15  1  0
 15 16  2  0
 16 17  1  0
 17 18  1  0
 16 19  1  0
 13 20  1  0
 19 20  2  0
 12 21  1  0
 21 22  2  0
 22 23  1  0
 23 24  1  0
 24 25  1  0
 25 26  2  0
 26 27  1  0
 27 28  2  0
 21 29  1  0
 24 29  2  0
 28 29  1  0
  7 30  1  0
  4 31  1  0
 30 31  1  0
M  END
