piperidine-amides-3250-covalent
     RDKit          3D

 22 23  0  0  0  0  0  0  0  0999 V2000
    7.1230   -3.2780   19.1660 C   0  0  0  0  0  0  0  0  0  0  0  0
    6.3620   -4.0150   20.1630 C   0  0  0  0  0  0  0  0  0  0  0  0
    5.2790   -4.5170   19.8710 O   0  0  0  0  0  0  0  0  0  0  0  0
    6.9030   -4.2110   21.4740 N   0  0  0  0  0  0  0  0  0  0  0  0
    7.6830   -3.1680   22.0910 C   0  0  0  0  0  0  0  0  0  0  0  0
    6.9710   -2.6490   23.3010 C   0  0  0  0  0  0  0  0  0  0  0  0
    6.5900   -3.8330   24.1710 C   0  0  0  0  0  0  0  0  0  0  0  0
    5.8180   -3.3210   25.3260 C   0  0  0  0  0  0  0  0  0  0  0  0
    4.5710   -3.3000   25.3350 O   0  0  0  0  0  0  0  0  0  0  0  0
    6.5290   -2.8390   26.4460 N   0  0  0  0  0  0  0  0  0  0  0  0
    6.2540   -3.3930   27.7490 C   0  0  2  0  0  0  0  0  0  0  0  0
    5.5660   -4.7220   27.5560 C   0  0  0  0  0  0  0  0  0  0  0  0
    4.2300   -4.6020   27.2190 O   0  0  0  0  0  0  0  0  0  0  0  0
    6.0760   -5.9770   27.6820 O   0  0  0  0  0  0  0  0  0  0  0  0
    6.4090   -6.5830   28.8900 C   0  0  0  0  0  0  0  0  0  0  0  0
    5.4350   -2.4790   28.5680 C   0  0  0  0  0  0  0  0  0  0  0  0
    4.4800   -1.7420   27.8760 C   0  0  0  0  0  0  0  0  0  0  0  0
    4.8840   -0.3810   28.0560 C   0  0  0  0  0  0  0  0  0  0  0  0
    5.9930   -0.3480   28.8260 C   0  0  0  0  0  0  0  0  0  0  0  0
    6.3440   -1.6310   29.2310 C   0  0  0  0  0  0  0  0  0  0  0  0
    5.9110   -4.9760   23.5090 C   0  0  0  0  0  0  0  0  0  0  0  0
    6.4790   -5.3390   22.2120 C   0  0  0  0  0  0  0  0  0  0  0  0
  1  2  1  0
  2  3  2  0
  2  4  1  0
  4  5  1  0
  5  6  1  0
  6  7  1  0
  7  8  1  0
  8  9  2  0
  8 10  1  0
 11 10  1  6
 11 12  1  0
 12 13  2  0
 12 14  1  0
 14 15  1  0
 11 16  1  0
 16 17  1  0
 17 18  1  0
 18 19  1  0
 16 20  1  0
 19 20  1  0
  7 21  1  0
  4 22  1  0
 21 22  1  0
M  END
