piperidine-amides-19043-covalent
     RDKit          3D

 22 24  0  0  0  0  0  0  0  0999 V2000
    7.0780   -3.3460   19.4660 C   0  0  0  0  0  0  0  0  0  0  0  0
    6.4060   -4.1880   20.4370 C   0  0  0  0  0  0  0  0  0  0  0  0
    5.4680   -4.9420   20.0110 O   0  0  0  0  0  0  0  0  0  0  0  0
    6.7710   -4.2080   21.8110 N   0  0  0  0  0  0  0  0  0  0  0  0
    6.6910   -5.5320   22.4930 C   0  0  0  0  0  0  0  0  0  0  0  0
    6.0640   -5.1700   23.9040 C   0  0  0  0  0  0  0  0  0  0  0  0
    6.2480   -3.6870   24.0410 C   0  0  0  0  0  0  0  0  0  0  0  0
    5.5060   -2.9940   25.2820 C   0  0  0  0  0  0  0  0  0  0  0  0
    4.4860   -2.4830   24.8510 O   0  0  0  0  0  0  0  0  0  0  0  0
    6.0960   -3.1250   26.4160 N   0  0  0  0  0  0  0  0  0  0  0  0
    6.4030   -3.7130   27.6160 C   0  0  0  0  0  0  0  0  0  0  0  0
    6.5550   -1.8060   26.7060 C   0  0  2  0  0  0  0  0  0  0  0  0
    6.5490   -1.3200   27.8860 C   0  0  0  0  0  0  0  0  0  0  0  0
    5.3410   -0.8250   27.0980 C   0  0  1  0  0  0  0  0  0  0  0  0
    5.9650    0.5470   27.4200 C   0  0  0  0  0  0  0  0  0  0  0  0
    6.0370    1.1980   26.1720 C   0  0  0  0  0  0  0  0  0  0  0  0
    6.5120    2.5190   25.7700 C   0  0  0  0  0  0  0  0  0  0  0  0
    6.9520    3.0610   27.1810 C   0  0  0  0  0  0  0  0  0  0  0  0
    6.8500    2.2980   28.5320 C   0  0  0  0  0  0  0  0  0  0  0  0
    6.3660    1.0800   28.6120 C   0  0  0  0  0  0  0  0  0  0  0  0
    7.6140   -3.1750   23.6540 C   0  0  0  0  0  0  0  0  0  0  0  0
    7.7000   -3.1910   22.2980 C   0  0  0  0  0  0  0  0  0  0  0  0
  1  2  1  0
  2  3  2  0
  2  4  1  0
  4  5  1  0
  5  6  1  0
  6  7  1  0
  7  8  1  0
  8  9  2  0
  8 10  1  0
 10 11  1  0
 12 10  1  1
 12 13  1  0
 12 14  1  0
 13 14  1  0
 14 15  1  6
 15 16  2  0
 16 17  1  0
 17 18  2  0
 18 19  1  0
 15 20  1  0
 19 20  2  0
  7 21  1  0
  4 22  1  0
 21 22  1  0
M  END
