piperidine-amides-11808-covalent
     RDKit          3D

 28 30  0  0  0  0  0  0  0  0999 V2000
    7.1490   -3.2060   19.1640 C   0  0  0  0  0  0  0  0  0  0  0  0
    6.3730   -3.9190   20.1690 C   0  0  0  0  0  0  0  0  0  0  0  0
    5.3100   -4.4610   19.8570 O   0  0  0  0  0  0  0  0  0  0  0  0
    6.8550   -4.0520   21.5120 N   0  0  0  0  0  0  0  0  0  0  0  0
    6.1650   -4.9250   22.3930 C   0  0  0  0  0  0  0  0  0  0  0  0
    5.2340   -4.1360   23.2830 C   0  0  0  0  0  0  0  0  0  0  0  0
    5.9520   -2.8800   23.7790 C   0  0  0  0  0  0  0  0  0  0  0  0
    5.6750   -2.6310   25.2420 C   0  0  0  0  0  0  0  0  0  0  0  0
    4.5000   -2.5470   25.6530 O   0  0  0  0  0  0  0  0  0  0  0  0
    6.7650   -2.4490   26.1600 N   0  0  0  0  0  0  0  0  0  0  0  0
    6.8110   -2.9910   27.5360 C   0  0  2  0  0  0  0  0  0  0  0  0
    8.0270   -3.8500   27.5180 C   0  0  0  0  0  0  0  0  0  0  0  0
    7.8750   -5.1290   27.3130 N   0  0  0  0  0  0  0  0  0  0  0  0
    6.5940   -5.1330   26.9630 C   0  0  0  0  0  0  0  0  0  0  0  0
    6.1560   -4.9810   25.6760 C   0  0  0  0  0  0  0  0  0  0  0  0
    6.6930   -5.9060   24.9310 C   0  0  0  0  0  0  0  0  0  0  0  0
    6.0180   -6.5560   23.8300 C   0  0  0  0  0  0  0  0  0  0  0  0
    6.6210   -7.5160   23.1070 C   0  0  0  0  0  0  0  0  0  0  0  0
    7.8490   -7.8630   23.4680 C   0  0  0  0  0  0  0  0  0  0  0  0
    8.5120   -7.2790   24.4920 C   0  0  0  0  0  0  0  0  0  0  0  0
    7.9730   -6.2350   25.2820 C   0  0  0  0  0  0  0  0  0  0  0  0
    8.7270   -5.6460   26.3010 C   0  0  0  0  0  0  0  0  0  0  0  0
    5.6760   -3.6390   28.1300 C   0  0  0  0  0  0  0  0  0  0  0  0
    5.1780   -2.6420   29.1210 C   0  0  0  0  0  0  0  0  0  0  0  0
    4.7220   -4.0760   27.2310 C   0  0  0  0  0  0  0  0  0  0  0  0
    6.0190   -4.7520   28.8630 C   0  0  0  0  0  0  0  0  0  0  0  0
    7.4120   -2.8300   23.4620 C   0  0  0  0  0  0  0  0  0  0  0  0
    7.6590   -3.0180   22.0970 C   0  0  0  0  0  0  0  0  0  0  0  0
  1  2  1  0
  2  3  2  0
  2  4  1  0
  4  5  1  0
  5  6  1  0
  6  7  1  0
  7  8  1  0
  8  9  2  0
  8 10  1  0
 10 11  1  0
 11 12  1  6
 12 13  1  0
 13 14  1  0
 14 15  1  0
 15 16  1  0
 16 17  2  0
 17 18  1  0
 18 19  2  0
 19 20  1  0
 16 21  1  0
 20 21  2  0
 13 22  1  0
 21 22  1  0
 11 23  1  0
 23 24  1  0
 23 25  1  0
 23 26  1  0
  7 27  1  0
  4 28  1  0
 27 28  1  0
M  END
