piperidine-amides-4126-covalent
     RDKit          3D

 27 29  0  0  0  0  0  0  0  0999 V2000
    7.2040   -3.2990   19.2210 C   0  0  0  0  0  0  0  0  0  0  0  0
    6.4130   -4.0350   20.2110 C   0  0  0  0  0  0  0  0  0  0  0  0
    5.2880   -4.4600   19.8560 O   0  0  0  0  0  0  0  0  0  0  0  0
    6.9470   -4.3120   21.4890 N   0  0  0  0  0  0  0  0  0  0  0  0
    7.6300   -3.2480   22.1210 C   0  0  0  0  0  0  0  0  0  0  0  0
    6.9780   -2.7410   23.3210 C   0  0  0  0  0  0  0  0  0  0  0  0
    6.1740   -3.6980   24.1260 C   0  0  0  0  0  0  0  0  0  0  0  0
    5.2330   -2.9320   25.0000 C   0  0  0  0  0  0  0  0  0  0  0  0
    4.0100   -3.0310   24.8070 O   0  0  0  0  0  0  0  0  0  0  0  0
    5.6820   -2.1190   26.0480 N   0  0  0  0  0  0  0  0  0  0  0  0
    5.7810   -2.5600   27.3670 C   0  0  0  0  0  0  0  0  0  0  0  0
    6.2330   -3.8960   27.5830 C   0  0  2  0  0  0  0  0  0  0  0  0
    6.2430   -4.2890   29.0630 C   0  0  0  0  0  0  0  0  0  0  0  0
    5.1890   -5.0850   29.4700 C   0  0  0  0  0  0  0  0  0  0  0  0
    5.8090   -6.4200   28.9890 C   0  0  0  0  0  0  0  0  0  0  0  0
    4.9150   -7.6120   29.2700 C   0  0  0  0  0  0  0  0  0  0  0  0
    3.5980   -7.2350   29.9640 C   0  0  0  0  0  0  0  0  0  0  0  0
    3.0550   -5.9130   30.4050 C   0  0  0  0  0  0  0  0  0  0  0  0
    4.0070   -4.8090   30.0850 C   0  0  0  0  0  0  0  0  0  0  0  0
    7.7060   -3.9690   27.4620 C   0  0  0  0  0  0  0  0  0  0  0  0
    8.3710   -4.8410   28.4040 C   0  0  0  0  0  0  0  0  0  0  0  0
    8.9260   -5.8470   27.7420 C   0  0  0  0  0  0  0  0  0  0  0  0
    9.2030   -6.4280   26.8420 N   0  0  0  0  0  0  0  0  0  0  0  0
    8.9390   -5.4230   25.8040 C   0  0  0  0  0  0  0  0  0  0  0  0
    8.2460   -4.0800   26.0290 C   0  0  0  0  0  0  0  0  0  0  0  0
    5.4470   -4.7330   23.3030 C   0  0  0  0  0  0  0  0  0  0  0  0
    6.3490   -5.3450   22.2520 C   0  0  0  0  0  0  0  0  0  0  0  0
  1  2  1  0
  2  3  2  0
  2  4  1  0
  4  5  1  0
  5  6  1  0
  6  7  1  0
  7  8  1  0
  8  9  2  0
  8 10  1  0
 10 11  1  0
 12 11  1  1
 12 13  1  0
 13 14  1  0
 14 15  2  0
 15 16  1  0
 16 17  2  0
 17 18  1  0
 14 19  1  0
 18 19  2  0
 12 20  1  0
 20 21  1  0
 21 22  1  0
 22 23  1  0
 23 24  1  0
 20 25  1  0
 24 25  1  0
  7 26  1  0
  4 27  1  0
 26 27  1  0
M  END
