piperidine-amides-5425-covalent
     RDKit          3D

 20 21  0  0  0  0  0  0  0  0999 V2000
    7.1670   -3.3010   19.2500 C   0  0  0  0  0  0  0  0  0  0  0  0
    6.3650   -4.0420   20.2200 C   0  0  0  0  0  0  0  0  0  0  0  0
    5.2660   -4.5040   19.8690 O   0  0  0  0  0  0  0  0  0  0  0  0
    6.8450   -4.3030   21.5080 N   0  0  0  0  0  0  0  0  0  0  0  0
    6.6090   -5.5770   22.1490 C   0  0  0  0  0  0  0  0  0  0  0  0
    5.9470   -5.2210   23.4480 C   0  0  0  0  0  0  0  0  0  0  0  0
    5.7680   -3.7390   23.5540 C   0  0  0  0  0  0  0  0  0  0  0  0
    5.1420   -3.3300   24.8200 C   0  0  0  0  0  0  0  0  0  0  0  0
    3.8860   -3.3300   24.9640 O   0  0  0  0  0  0  0  0  0  0  0  0
    5.8900   -2.9370   25.9120 N   0  0  0  0  0  0  0  0  0  0  0  0
    5.6500   -3.5450   27.2170 C   0  0  0  0  0  0  0  0  0  0  0  0
    6.7380   -2.9530   27.9400 C   0  0  0  0  0  0  0  0  0  0  0  0
    6.5530   -1.7080   28.3240 N   0  0  0  0  0  0  0  0  0  0  0  0
    7.6840   -1.3080   28.9680 C   0  0  0  0  0  0  0  0  0  0  0  0
    8.5320   -2.3270   28.9480 N   0  0  0  0  0  0  0  0  0  0  0  0
    7.9400   -3.3720   28.3190 N   0  0  0  0  0  0  0  0  0  0  0  0
    8.4000   -4.7210   28.0390 C   0  0  0  0  0  0  0  0  0  0  0  0
    7.2690   -5.6660   28.3670 C   0  0  0  0  0  0  0  0  0  0  0  0
    7.0870   -3.0540   23.4010 C   0  0  0  0  0  0  0  0  0  0  0  0
    7.5830   -3.2500   22.1450 C   0  0  0  0  0  0  0  0  0  0  0  0
  1  2  1  0
  2  3  2  0
  2  4  1  0
  4  5  1  0
  5  6  1  0
  6  7  1  0
  7  8  1  0
  8  9  2  0
  8 10  1  0
 10 11  1  0
 11 12  1  0
 12 13  2  0
 13 14  1  0
 14 15  2  0
 12 16  1  0
 15 16  1  0
 16 17  1  0
 17 18  1  0
  7 19  1  0
  4 20  1  0
 19 20  1  0
M  END
