piperidine-amides-26823-covalent
     RDKit          3D

 24 26  0  0  0  0  0  0  0  0999 V2000
    6.9980   -3.3730   19.3930 C   0  0  0  0  0  0  0  0  0  0  0  0
    6.3550   -4.2380   20.3940 C   0  0  0  0  0  0  0  0  0  0  0  0
    5.3850   -4.9260   19.9910 O   0  0  0  0  0  0  0  0  0  0  0  0
    6.8340   -4.3010   21.7130 N   0  0  0  0  0  0  0  0  0  0  0  0
    6.7440   -5.5200   22.4970 C   0  0  0  0  0  0  0  0  0  0  0  0
    6.1670   -5.1650   23.8440 C   0  0  0  0  0  0  0  0  0  0  0  0
    6.1290   -3.6770   24.0010 C   0  0  0  0  0  0  0  0  0  0  0  0
    5.5400   -3.2030   25.2910 C   0  0  0  0  0  0  0  0  0  0  0  0
    5.0380   -2.0670   25.2740 O   0  0  0  0  0  0  0  0  0  0  0  0
    5.4520   -3.8990   26.5220 N   0  0  0  0  0  0  0  0  0  0  0  0
    6.4320   -3.7160   27.5190 C   0  0  0  0  0  0  0  0  0  0  0  0
    6.5840   -5.0030   28.3450 C   0  0  0  0  0  0  0  0  0  0  0  0
    5.2270   -5.2320   28.9120 N   0  0  0  0  0  0  0  0  0  0  0  0
    5.0050   -5.8200   30.0750 C   0  0  0  0  0  0  0  0  0  0  0  0
    4.1210   -5.4650   30.9940 N   0  0  0  0  0  0  0  0  0  0  0  0
    4.1580   -6.2630   32.0900 C   0  0  0  0  0  0  0  0  0  0  0  0
    5.1400   -7.2650   31.9430 C   0  0  0  0  0  0  0  0  0  0  0  0
    5.3260   -8.1630   32.9810 C   0  0  0  0  0  0  0  0  0  0  0  0
    4.1830   -8.7920   33.4190 C   0  0  0  0  0  0  0  0  0  0  0  0
    5.9940   -7.2210   30.4430 S   0  0  0  0  0  0  0  0  0  0  0  0
    4.3340   -4.2870   28.6780 C   0  0  0  0  0  0  0  0  0  0  0  0
    4.2240   -3.9210   27.2050 C   0  0  0  0  0  0  0  0  0  0  0  0
    7.5020   -3.0640   23.7070 C   0  0  0  0  0  0  0  0  0  0  0  0
    7.6780   -3.2040   22.2050 C   0  0  0  0  0  0  0  0  0  0  0  0
  1  2  1  0
  2  3  2  0
  2  4  1  0
  4  5  1  0
  5  6  1  0
  6  7  1  0
  7  8  1  0
  8  9  2  0
  8 10  1  0
 10 11  1  0
 11 12  1  0
 12 13  1  0
 13 14  1  0
 14 15  2  0
 15 16  1  0
 16 17  2  0
 17 18  1  0
 18 19  1  0
 14 20  1  0
 17 20  1  0
 13 21  1  0
 10 22  1  0
 21 22  1  0
  7 23  1  0
  4 24  1  0
 23 24  1  0
M  END
