piperidine-amides-6513-covalent
     RDKit          3D

 24 25  0  0  0  0  0  0  0  0999 V2000
    7.1390   -3.2740   19.2040 C   0  0  0  0  0  0  0  0  0  0  0  0
    6.3950   -4.0540   20.2070 C   0  0  0  0  0  0  0  0  0  0  0  0
    5.3100   -4.5900   19.9030 O   0  0  0  0  0  0  0  0  0  0  0  0
    6.9250   -4.2580   21.4830 N   0  0  0  0  0  0  0  0  0  0  0  0
    7.7740   -3.2480   22.0770 C   0  0  0  0  0  0  0  0  0  0  0  0
    6.9700   -2.6360   23.2160 C   0  0  0  0  0  0  0  0  0  0  0  0
    6.6790   -3.7780   24.1520 C   0  0  0  0  0  0  0  0  0  0  0  0
    5.9280   -3.2340   25.2960 C   0  0  0  0  0  0  0  0  0  0  0  0
    4.6800   -3.3020   25.2940 O   0  0  0  0  0  0  0  0  0  0  0  0
    6.6490   -2.6320   26.3490 N   0  0  0  0  0  0  0  0  0  0  0  0
    6.3290   -2.8920   27.7250 C   0  0  0  0  0  0  0  0  0  0  0  0
    6.0610   -4.3660   27.9280 C   0  0  0  0  0  0  0  0  0  0  0  0
    4.7230   -4.5130   28.3910 O   0  0  0  0  0  0  0  0  0  0  0  0
    4.3440   -5.3170   29.4410 C   0  0  0  0  0  0  0  0  0  0  0  0
    3.1890   -5.1580   30.1140 C   0  0  0  0  0  0  0  0  0  0  0  0
    2.0180   -3.9090   29.7450 Cl  0  0  0  0  0  0  0  0  0  0  0  0
    2.9340   -6.0120   31.1350 C   0  0  0  0  0  0  0  0  0  0  0  0
    3.7290   -7.0320   31.5530 C   0  0  0  0  0  0  0  0  0  0  0  0
    3.1020   -8.0600   33.0070 Br  0  0  0  0  0  0  0  0  0  0  0  0
    5.0850   -7.4040   30.9430 C   0  0  0  0  0  0  0  0  0  0  0  0
    5.1810   -6.3350   29.8320 C   0  0  0  0  0  0  0  0  0  0  0  0
    6.6840   -6.5530   28.9540 Cl  0  0  0  0  0  0  0  0  0  0  0  0
    5.9110   -4.8880   23.5530 C   0  0  0  0  0  0  0  0  0  0  0  0
    6.4630   -5.3390   22.2790 C   0  0  0  0  0  0  0  0  0  0  0  0
  1  2  1  0
  2  3  2  0
  2  4  1  0
  4  5  1  0
  5  6  1  0
  6  7  1  0
  7  8  1  0
  8  9  2  0
  8 10  1  0
 10 11  1  0
 11 12  1  0
 12 13  1  0
 13 14  1  0
 14 15  2  0
 15 16  1  0
 15 17  1  0
 17 18  2  0
 18 19  1  0
 18 20  1  0
 14 21  1  0
 20 21  2  0
 21 22  1  0
  7 23  1  0
  4 24  1  0
 23 24  1  0
M  END
