piperidine-amides-19339-covalent
     RDKit          3D

 22 24  0  0  0  0  0  0  0  0999 V2000
    7.1030   -3.4040   19.3230 C   0  0  0  0  0  0  0  0  0  0  0  0
    6.4470   -4.1980   20.3310 C   0  0  0  0  0  0  0  0  0  0  0  0
    5.3820   -4.8030   19.9880 O   0  0  0  0  0  0  0  0  0  0  0  0
    6.9840   -4.3830   21.6260 N   0  0  0  0  0  0  0  0  0  0  0  0
    6.5150   -5.5340   22.4190 C   0  0  0  0  0  0  0  0  0  0  0  0
    5.4830   -4.7820   23.3370 C   0  0  0  0  0  0  0  0  0  0  0  0
    6.2800   -3.7260   24.0770 C   0  0  0  0  0  0  0  0  0  0  0  0
    5.3790   -2.9190   25.1030 C   0  0  0  0  0  0  0  0  0  0  0  0
    4.4760   -2.3410   24.5240 O   0  0  0  0  0  0  0  0  0  0  0  0
    5.8270   -3.0850   26.2700 N   0  0  0  0  0  0  0  0  0  0  0  0
    5.9770   -3.6660   27.4850 C   0  0  0  0  0  0  0  0  0  0  0  0
    5.8460   -4.9340   27.9730 C   0  0  0  0  0  0  0  0  0  0  0  0
    6.4980   -5.5630   29.0330 C   0  0  0  0  0  0  0  0  0  0  0  0
    6.1170   -6.9730   29.3260 C   0  0  0  0  0  0  0  0  0  0  0  0
    5.0630   -7.1290   28.2050 C   0  0  0  0  0  0  0  0  0  0  0  0
    4.9320   -5.9160   27.4300 N   0  0  0  0  0  0  0  0  0  0  0  0
    4.0990   -5.6230   26.3230 C   0  0  0  0  0  0  0  0  0  0  0  0
    6.6590   -1.9480   26.6380 C   0  0  0  0  0  0  0  0  0  0  0  0
    5.8320   -0.8560   26.9300 C   0  0  0  0  0  0  0  0  0  0  0  0
    6.7620   -1.3780   28.1430 C   0  0  0  0  0  0  0  0  0  0  0  0
    6.9770   -2.7350   23.1300 C   0  0  0  0  0  0  0  0  0  0  0  0
    7.8200   -3.3990   22.2940 C   0  0  0  0  0  0  0  0  0  0  0  0
  1  2  1  0
  2  3  2  0
  2  4  1  0
  4  5  1  0
  5  6  1  0
  6  7  1  0
  7  8  1  0
  8  9  2  0
  8 10  1  0
 10 11  1  0
 11 12  1  0
 12 13  2  0
 13 14  1  0
 14 15  2  0
 12 16  1  0
 15 16  1  0
 16 17  1  0
 10 18  1  0
 18 19  1  0
 18 20  1  0
 19 20  1  0
  7 21  1  0
  4 22  1  0
 21 22  1  0
M  END
