piperidine-amides-10979-covalent
     RDKit          3D

 21 23  0  0  0  0  0  0  0  0999 V2000
    7.0420   -3.3370   19.3200 C   0  0  0  0  0  0  0  0  0  0  0  0
    6.3640   -4.1620   20.3270 C   0  0  0  0  0  0  0  0  0  0  0  0
    5.3750   -4.8270   19.9790 O   0  0  0  0  0  0  0  0  0  0  0  0
    6.8300   -4.2520   21.6560 N   0  0  0  0  0  0  0  0  0  0  0  0
    6.7100   -5.4720   22.4280 C   0  0  0  0  0  0  0  0  0  0  0  0
    6.0370   -5.0900   23.7260 C   0  0  0  0  0  0  0  0  0  0  0  0
    6.0650   -3.6110   23.9430 C   0  0  0  0  0  0  0  0  0  0  0  0
    5.6510   -3.1780   25.2990 C   0  0  0  0  0  0  0  0  0  0  0  0
    4.4250   -3.0840   25.5870 O   0  0  0  0  0  0  0  0  0  0  0  0
    6.5720   -2.8630   26.3170 N   0  0  0  0  0  0  0  0  0  0  0  0
    6.4860   -1.5970   27.0820 C   0  0  0  0  0  0  0  0  0  0  0  0
    7.0700   -1.6160   28.4620 C   0  0  0  0  0  0  0  0  0  0  0  0
    7.0340   -0.4130   29.3170 C   0  0  0  0  0  0  0  0  0  0  0  0
    6.3880    0.7780   28.7080 C   0  0  0  0  0  0  0  0  0  0  0  0
    6.1050    2.2040   29.1470 C   0  0  0  0  0  0  0  0  0  0  0  0
    5.4260    2.7800   27.9730 C   0  0  0  0  0  0  0  0  0  0  0  0
    5.2580    1.9430   26.9130 O   0  0  0  0  0  0  0  0  0  0  0  0
    5.8210    0.7300   27.3120 C   0  0  0  0  0  0  0  0  0  0  0  0
    5.8300   -0.3810   26.4610 C   0  0  0  0  0  0  0  0  0  0  0  0
    7.4400   -3.0130   23.6450 C   0  0  0  0  0  0  0  0  0  0  0  0
    7.6650   -3.1620   22.1400 C   0  0  0  0  0  0  0  0  0  0  0  0
  1  2  1  0
  2  3  2  0
  2  4  1  0
  4  5  1  0
  5  6  1  0
  6  7  1  0
  7  8  1  0
  8  9  2  0
  8 10  1  0
 10 11  1  0
 11 12  2  0
 12 13  1  0
 13 14  2  0
 14 15  1  0
 15 16  2  0
 16 17  1  0
 14 18  1  0
 17 18  1  0
 11 19  1  0
 18 19  2  0
  7 20  1  0
  4 21  1  0
 20 21  1  0
M  END
