piperidine-amides-23325-covalent
     RDKit          3D

 24 27  0  0  0  0  0  0  0  0999 V2000
    7.0380   -3.3710   19.3290 C   0  0  0  0  0  0  0  0  0  0  0  0
    6.4050   -4.2190   20.3540 C   0  0  0  0  0  0  0  0  0  0  0  0
    5.3900   -4.8650   19.9910 O   0  0  0  0  0  0  0  0  0  0  0  0
    6.9490   -4.3390   21.6650 N   0  0  0  0  0  0  0  0  0  0  0  0
    6.6580   -5.5200   22.4190 C   0  0  0  0  0  0  0  0  0  0  0  0
    6.0930   -5.2070   23.7170 C   0  0  0  0  0  0  0  0  0  0  0  0
    6.1310   -3.7630   23.9600 C   0  0  0  0  0  0  0  0  0  0  0  0
    5.5320   -3.3380   25.2740 C   0  0  0  0  0  0  0  0  0  0  0  0
    4.5050   -2.6460   25.2450 O   0  0  0  0  0  0  0  0  0  0  0  0
    6.0360   -3.6780   26.5420 N   0  0  0  0  0  0  0  0  0  0  0  0
    6.4510   -2.7820   27.5160 C   0  0  0  0  0  0  0  0  0  0  0  0
    6.6920   -3.4750   28.7570 C   0  0  0  0  0  0  0  0  0  0  0  0
    5.8500   -4.7250   28.5390 C   0  0  0  0  0  0  0  0  0  0  0  0
    5.4740   -4.8230   27.2020 C   0  0  0  0  0  0  0  0  0  0  0  0
    4.6170   -4.2720   29.0910 O   0  0  0  0  0  0  0  0  0  0  0  0
    4.4230   -5.2050   30.0440 C   0  0  0  0  0  0  0  0  0  0  0  0
    3.3090   -5.2220   31.0450 C   0  0  0  0  0  0  0  0  0  0  0  0
    3.5400   -6.5010   31.9130 C   0  0  0  0  0  0  0  0  0  0  0  0
    4.6370   -7.5660   31.8310 C   0  0  0  0  0  0  0  0  0  0  0  0
    5.6600   -7.3520   30.7440 C   0  0  0  0  0  0  0  0  0  0  0  0
    5.4930   -6.1360   29.8780 C   0  0  0  0  0  0  0  0  0  0  0  0
    6.2950   -5.8770   28.9600 O   0  0  0  0  0  0  0  0  0  0  0  0
    7.5050   -3.2580   23.6630 C   0  0  0  0  0  0  0  0  0  0  0  0
    7.6940   -3.2350   22.2720 C   0  0  0  0  0  0  0  0  0  0  0  0
  1  2  1  0
  2  3  2  0
  2  4  1  0
  4  5  1  0
  5  6  1  0
  6  7  1  0
  7  8  1  0
  8  9  2  0
  8 10  1  0
 10 11  1  0
 11 12  1  0
 12 13  1  0
 10 14  1  0
 13 14  1  0
 13 15  1  0
 15 16  1  0
 16 17  1  0
 17 18  2  0
 18 19  1  0
 19 20  2  0
 16 21  2  0
 20 21  1  0
 13 22  1  0
 21 22  1  0
  7 23  1  0
  4 24  1  0
 23 24  1  0
M  END
