piperidine-amides-27073-covalent
     RDKit          3D

 26 29  0  0  0  0  0  0  0  0999 V2000
    7.0500   -3.3590   19.3920 C   0  0  0  0  0  0  0  0  0  0  0  0
    6.4040   -4.2290   20.3750 C   0  0  0  0  0  0  0  0  0  0  0  0
    5.3760   -4.8440   19.9840 O   0  0  0  0  0  0  0  0  0  0  0  0
    6.9520   -4.3930   21.6540 N   0  0  0  0  0  0  0  0  0  0  0  0
    6.6260   -5.5350   22.4610 C   0  0  0  0  0  0  0  0  0  0  0  0
    5.7100   -5.0770   23.5660 C   0  0  0  0  0  0  0  0  0  0  0  0
    6.2210   -3.8780   24.3420 C   0  0  0  0  0  0  0  0  0  0  0  0
    5.1400   -3.3400   25.2250 C   0  0  0  0  0  0  0  0  0  0  0  0
    4.1010   -2.9350   24.6790 O   0  0  0  0  0  0  0  0  0  0  0  0
    5.2210   -3.2570   26.6310 N   0  0  0  0  0  0  0  0  0  0  0  0
    4.2300   -3.7540   27.5140 C   0  0  0  0  0  0  0  0  0  0  0  0
    5.1560   -3.9740   28.6740 C   0  0  0  0  0  0  0  0  0  0  0  0
    6.3500   -3.3320   28.5100 C   0  0  2  0  0  0  0  0  0  0  0  0
    6.4130   -2.0030   28.8900 C   0  0  0  0  0  0  0  0  0  0  0  0
    6.6070   -0.9670   27.9700 C   0  0  0  0  0  0  0  0  0  0  0  0
    6.6610    0.3760   28.3010 C   0  0  0  0  0  0  0  0  0  0  0  0
    6.5310    0.8190   29.5860 C   0  0  0  0  0  0  0  0  0  0  0  0
    6.5960    2.2910   29.9310 C   0  0  0  0  0  0  0  0  0  0  0  0
    6.4220    2.4860   31.4320 C   0  0  0  0  0  0  0  0  0  0  0  0
    6.2170    1.3440   32.3880 C   0  0  0  0  0  0  0  0  0  0  0  0
    6.1730    0.0700   31.9850 N   0  0  0  0  0  0  0  0  0  0  0  0
    6.3380   -0.1700   30.5360 C   0  0  0  0  0  0  0  0  0  0  0  0
    6.2850   -1.5350   30.1580 N   0  0  0  0  0  0  0  0  0  0  0  0
    6.4350   -3.5990   27.1720 C   0  0  0  0  0  0  0  0  0  0  0  0
    6.6930   -2.7860   23.3850 C   0  0  0  0  0  0  0  0  0  0  0  0
    7.6590   -3.3390   22.3490 C   0  0  0  0  0  0  0  0  0  0  0  0
  1  2  1  0
  2  3  2  0
  2  4  1  0
  4  5  1  0
  5  6  1  0
  6  7  1  0
  7  8  1  0
  8  9  2  0
  8 10  1  0
 10 11  1  0
 11 12  1  0
 12 13  1  0
 13 14  1  6
 14 15  2  0
 15 16  1  0
 16 17  2  0
 17 18  1  0
 18 19  2  0
 19 20  1  0
 20 21  2  0
 17 22  1  0
 21 22  1  0
 14 23  1  0
 22 23  2  0
 10 24  1  0
 13 24  1  0
  7 25  1  0
  4 26  1  0
 25 26  1  0
M  END
