piperidine-amides-3395-covalent
     RDKit          3D

 21 22  0  0  0  0  0  0  0  0999 V2000
    7.1240   -3.3020   19.2310 C   0  0  0  0  0  0  0  0  0  0  0  0
    6.3990   -4.0840   20.2230 C   0  0  0  0  0  0  0  0  0  0  0  0
    5.3320   -4.6130   19.9180 O   0  0  0  0  0  0  0  0  0  0  0  0
    6.9480   -4.2990   21.5310 N   0  0  0  0  0  0  0  0  0  0  0  0
    6.4180   -5.3890   22.2840 C   0  0  0  0  0  0  0  0  0  0  0  0
    5.6470   -4.8110   23.4350 C   0  0  0  0  0  0  0  0  0  0  0  0
    6.5130   -3.7860   24.1700 C   0  0  0  0  0  0  0  0  0  0  0  0
    5.7820   -3.3890   25.4080 C   0  0  0  0  0  0  0  0  0  0  0  0
    4.5720   -3.0960   25.3860 O   0  0  0  0  0  0  0  0  0  0  0  0
    6.4590   -3.3300   26.6520 N   0  0  0  0  0  0  0  0  0  0  0  0
    6.4990   -4.5220   27.4810 C   0  0  0  0  0  0  0  0  0  0  0  0
    5.2120   -4.6710   28.1760 C   0  0  0  0  0  0  0  0  0  0  0  0
    5.1090   -5.6010   29.1790 C   0  0  0  0  0  0  0  0  0  0  0  0
    4.0370   -5.6300   30.0740 C   0  0  0  0  0  0  0  0  0  0  0  0
    3.6020   -4.5720   30.8430 N   0  0  0  0  0  0  0  0  0  0  0  0
    2.5670   -5.0990   31.5110 N   0  0  0  0  0  0  0  0  0  0  0  0
    2.4200   -6.3920   31.1380 N   0  0  0  0  0  0  0  0  0  0  0  0
    3.3440   -6.7160   30.2320 N   0  0  0  0  0  0  0  0  0  0  0  0
    3.5700   -7.9760   29.5590 C   0  0  0  0  0  0  0  0  0  0  0  0
    6.8590   -2.7290   23.2080 C   0  0  0  0  0  0  0  0  0  0  0  0
    7.6060   -3.2400   22.1750 C   0  0  0  0  0  0  0  0  0  0  0  0
  1  2  1  0
  2  3  2  0
  2  4  1  0
  4  5  1  0
  5  6  1  0
  6  7  1  0
  7  8  1  0
  8  9  2  0
  8 10  1  0
 10 11  1  0
 11 12  1  0
 12 13  1  0
 13 14  1  0
 14 15  2  0
 15 16  1  0
 16 17  2  0
 14 18  1  0
 17 18  1  0
 18 19  1  0
  7 20  1  0
  4 21  1  0
 20 21  1  0
M  END
