piperidine-amides-952-covalent
     RDKit          3D

 24 25  0  0  0  0  0  0  0  0999 V2000
    7.1760   -3.2720   19.1920 C   0  0  0  0  0  0  0  0  0  0  0  0
    6.4000   -4.0650   20.1840 C   0  0  0  0  0  0  0  0  0  0  0  0
    5.2850   -4.5140   19.8700 O   0  0  0  0  0  0  0  0  0  0  0  0
    6.9870   -4.3380   21.4310 N   0  0  0  0  0  0  0  0  0  0  0  0
    7.7630   -3.3310   22.1050 C   0  0  0  0  0  0  0  0  0  0  0  0
    6.8120   -2.7560   23.1350 C   0  0  0  0  0  0  0  0  0  0  0  0
    6.4150   -3.8780   24.0300 C   0  0  0  0  0  0  0  0  0  0  0  0
    5.8230   -3.2970   25.2270 C   0  0  0  0  0  0  0  0  0  0  0  0
    4.5910   -3.2510   25.2930 O   0  0  0  0  0  0  0  0  0  0  0  0
    6.6920   -2.8170   26.1820 N   0  0  0  0  0  0  0  0  0  0  0  0
    6.3650   -2.2850   27.4300 C   0  0  0  0  0  0  0  0  0  0  0  0
    6.0870   -3.0010   28.5500 C   0  0  1  0  0  0  0  0  0  0  0  0
    5.2000   -2.3860   29.4460 C   0  0  0  0  0  0  0  0  0  0  0  0
    5.6770   -1.4600   30.3600 O   0  0  0  0  0  0  0  0  0  0  0  0
    3.8460   -2.6420   29.4540 O   0  0  0  0  0  0  0  0  0  0  0  0
    3.2820   -3.8970   29.8340 C   0  0  0  0  0  0  0  0  0  0  0  0
    5.5640   -4.3430   28.3020 C   0  0  0  0  0  0  0  0  0  0  0  0
    4.3710   -4.6300   27.3950 C   0  0  0  0  0  0  0  0  0  0  0  0
    3.9430   -6.0780   27.2510 C   0  0  0  0  0  0  0  0  0  0  0  0
    4.5910   -7.0970   27.9050 C   0  0  0  0  0  0  0  0  0  0  0  0
    5.7620   -6.9800   28.8160 C   0  0  0  0  0  0  0  0  0  0  0  0
    6.1930   -5.5220   28.9580 C   0  0  0  0  0  0  0  0  0  0  0  0
    5.5730   -4.8250   23.2790 C   0  0  0  0  0  0  0  0  0  0  0  0
    6.5000   -5.4350   22.2090 C   0  0  0  0  0  0  0  0  0  0  0  0
  1  2  1  0
  2  3  2  0
  2  4  1  0
  4  5  1  0
  5  6  1  0
  6  7  1  0
  7  8  1  0
  8  9  2  0
  8 10  1  0
 10 11  1  0
 12 11  1  6
 12 13  1  0
 13 14  2  0
 13 15  1  0
 15 16  1  0
 12 17  1  0
 17 18  2  0
 18 19  1  0
 19 20  2  0
 20 21  1  0
 17 22  1  0
 21 22  2  0
  7 23  1  0
  4 24  1  0
 23 24  1  0
M  END
