piperidine-amides-32952-covalent
     RDKit          3D

 23 24  0  0  0  0  0  0  0  0999 V2000
    7.1700   -3.2900   19.2220 C   0  0  0  0  0  0  0  0  0  0  0  0
    6.3680   -4.0360   20.2190 C   0  0  0  0  0  0  0  0  0  0  0  0
    5.2790   -4.5370   19.8830 O   0  0  0  0  0  0  0  0  0  0  0  0
    6.9090   -4.2030   21.5050 N   0  0  0  0  0  0  0  0  0  0  0  0
    7.7440   -3.2110   22.1390 C   0  0  0  0  0  0  0  0  0  0  0  0
    6.8980   -2.5970   23.2470 C   0  0  0  0  0  0  0  0  0  0  0  0
    6.4930   -3.7210   24.1290 C   0  0  0  0  0  0  0  0  0  0  0  0
    5.6920   -3.2640   25.2780 C   0  0  0  0  0  0  0  0  0  0  0  0
    4.4980   -3.0510   25.0500 O   0  0  0  0  0  0  0  0  0  0  0  0
    6.2590   -3.0940   26.5370 N   0  0  0  0  0  0  0  0  0  0  0  0
    6.0400   -4.0890   27.5300 C   0  0  0  0  0  0  0  0  0  0  0  0
    6.6160   -4.1740   28.7630 C   0  0  0  0  0  0  0  0  0  0  0  0
    5.9250   -5.3010   29.3710 O   0  0  0  0  0  0  0  0  0  0  0  0
    6.4270   -6.5360   29.0000 C   0  0  0  0  0  0  0  0  0  0  0  0
    6.5910   -1.8100   27.0110 C   0  0  0  0  0  0  0  0  0  0  0  0
    6.6430   -1.3440   28.4250 C   0  0  0  0  0  0  0  0  0  0  0  0
    7.7350   -1.1870   29.4560 C   0  0  0  0  0  0  0  0  0  0  0  0
    7.1430   -0.6390   30.7360 C   0  0  0  0  0  0  0  0  0  0  0  0
    5.7820   -0.3820   30.7810 C   0  0  0  0  0  0  0  0  0  0  0  0
    4.9290    0.3070   32.3470 Br  0  0  0  0  0  0  0  0  0  0  0  0
    5.1530   -0.8040   29.2310 S   0  0  0  0  0  0  0  0  0  0  0  0
    5.7310   -4.8180   23.4560 C   0  0  0  0  0  0  0  0  0  0  0  0
    6.5250   -5.3520   22.2800 C   0  0  0  0  0  0  0  0  0  0  0  0
  1  2  1  0
  2  3  2  0
  2  4  1  0
  4  5  1  0
  5  6  1  0
  6  7  1  0
  7  8  1  0
  8  9  2  0
  8 10  1  0
 10 11  1  0
 11 12  1  0
 12 13  1  0
 13 14  1  0
 10 15  1  0
 15 16  1  0
 16 17  2  0
 17 18  1  0
 18 19  2  0
 19 20  1  0
 16 21  1  0
 19 21  1  0
  7 22  1  0
  4 23  1  0
 22 23  1  0
M  END
