piperidine-amides-23599-covalent
     RDKit          3D

 24 26  0  0  0  0  0  0  0  0999 V2000
    7.0590   -3.3390   19.3580 C   0  0  0  0  0  0  0  0  0  0  0  0
    6.3960   -4.1910   20.3550 C   0  0  0  0  0  0  0  0  0  0  0  0
    5.3700   -4.8120   19.9750 O   0  0  0  0  0  0  0  0  0  0  0  0
    6.9240   -4.3470   21.6620 N   0  0  0  0  0  0  0  0  0  0  0  0
    6.4940   -5.4330   22.4560 C   0  0  0  0  0  0  0  0  0  0  0  0
    6.5350   -5.1980   23.9050 C   0  0  0  0  0  0  0  0  0  0  0  0
    6.7400   -3.8040   24.4040 C   0  0  0  0  0  0  0  0  0  0  0  0
    5.7620   -3.4900   25.5230 C   0  0  0  0  0  0  0  0  0  0  0  0
    4.5780   -3.3040   25.1940 O   0  0  0  0  0  0  0  0  0  0  0  0
    6.0700   -3.3840   26.9240 N   0  0  0  0  0  0  0  0  0  0  0  0
    6.4680   -4.3260   27.8130 C   0  0  0  0  0  0  0  0  0  0  0  0
    5.5480   -4.2930   28.8530 C   0  0  0  0  0  0  0  0  0  0  0  0
    4.1650   -4.0950   28.1690 C   0  0  1  0  0  0  0  0  0  0  0  0
    3.0980   -3.7860   28.9940 C   0  0  0  0  0  0  0  0  0  0  0  0
    3.1780   -5.0100   29.9000 C   0  0  0  0  0  0  0  0  0  0  0  0
    2.1000   -4.9690   30.9430 C   0  0  0  0  0  0  0  0  0  0  0  0
    1.2150   -3.7060   30.8100 C   0  0  0  0  0  0  0  0  0  0  0  0
    1.2280   -2.6040   29.9100 N   0  0  0  0  0  0  0  0  0  0  0  0
    2.2510   -2.7000   28.9670 C   0  0  0  0  0  0  0  0  0  0  0  0
    2.5210   -1.7700   27.9440 O   0  0  0  0  0  0  0  0  0  0  0  0
    2.0450   -2.0350   26.6330 C   0  0  0  0  0  0  0  0  0  0  0  0
    4.9820   -2.8560   27.6980 C   0  0  0  0  0  0  0  0  0  0  0  0
    6.6860   -2.8060   23.2910 C   0  0  0  0  0  0  0  0  0  0  0  0
    7.5980   -3.2700   22.3450 C   0  0  0  0  0  0  0  0  0  0  0  0
  1  2  1  0
  2  3  2  0
  2  4  1  0
  4  5  1  0
  5  6  1  0
  6  7  1  0
  7  8  1  0
  8  9  2  0
  8 10  1  0
 10 11  1  0
 11 12  1  0
 12 13  1  0
 13 14  1  1
 14 15  2  0
 15 16  1  0
 16 17  2  0
 17 18  1  0
 14 19  1  0
 18 19  2  0
 19 20  1  0
 20 21  1  0
 10 22  1  0
 13 22  1  0
  7 23  1  0
  4 24  1  0
 23 24  1  0
M  END
