piperidine-amides-34234-covalent
     RDKit          3D

 26 28  0  0  0  0  0  0  0  0999 V2000
    7.1010   -3.3130   19.3360 C   0  0  0  0  0  0  0  0  0  0  0  0
    6.4190   -4.1570   20.3300 C   0  0  0  0  0  0  0  0  0  0  0  0
    5.4250   -4.8430   19.9910 O   0  0  0  0  0  0  0  0  0  0  0  0
    6.9050   -4.2300   21.6490 N   0  0  0  0  0  0  0  0  0  0  0  0
    7.8000   -3.1860   22.1450 C   0  0  0  0  0  0  0  0  0  0  0  0
    7.5310   -3.0120   23.6400 C   0  0  0  0  0  0  0  0  0  0  0  0
    6.0900   -3.4010   23.7730 C   0  0  0  0  0  0  0  0  0  0  0  0
    5.4310   -2.9000   24.9970 C   0  0  0  0  0  0  0  0  0  0  0  0
    4.2230   -2.6070   24.9010 O   0  0  0  0  0  0  0  0  0  0  0  0
    6.0930   -2.7830   26.2380 N   0  0  0  0  0  0  0  0  0  0  0  0
    5.8440   -3.9400   27.0300 C   0  0  0  0  0  0  0  0  0  0  0  0
    4.9990   -5.0230   26.4490 C   0  0  0  0  0  0  0  0  0  0  0  0
    4.8120   -6.0920   27.2540 C   0  0  0  0  0  0  0  0  0  0  0  0
    5.3790   -6.1380   28.5060 C   0  0  0  0  0  0  0  0  0  0  0  0
    5.0570   -7.6730   29.5840 Br  0  0  0  0  0  0  0  0  0  0  0  0
    6.1830   -5.1500   29.0880 C   0  0  0  0  0  0  0  0  0  0  0  0
    6.4010   -4.0550   28.3470 N   0  0  0  0  0  0  0  0  0  0  0  0
    5.9260   -1.6180   27.1890 C   0  0  1  0  0  0  0  0  0  0  0  0
    7.1040   -1.4660   28.1600 C   0  0  0  0  0  0  0  0  0  0  0  0
    5.8980   -0.6570   28.5220 C   0  0  0  0  0  0  0  0  0  0  0  0
    6.2730    0.7820   28.6490 C   0  0  0  0  0  0  0  0  0  0  0  0
    5.2850    0.4710   27.6240 C   0  0  0  0  0  0  0  0  0  0  0  0
    5.8670   -0.3060   26.6030 C   0  0  2  0  0  0  0  0  0  0  0  0
    5.2630   -0.3560   25.5100 O   0  0  0  0  0  0  0  0  0  0  0  0
    6.0260   -4.9250   23.7430 C   0  0  0  0  0  0  0  0  0  0  0  0
    6.6560   -5.4050   22.4590 C   0  0  0  0  0  0  0  0  0  0  0  0
  1  2  1  0
  2  3  2  0
  2  4  1  0
  4  5  1  0
  5  6  1  0
  6  7  1  0
  7  8  1  0
  8  9  2  0
  8 10  1  0
 10 11  1  0
 11 12  2  0
 12 13  1  0
 13 14  2  0
 14 15  1  0
 14 16  1  0
 11 17  1  0
 16 17  2  0
 18 10  1  6
 18 19  1  0
 19 20  1  0
 20 21  1  0
 21 22  1  0
 18 23  1  0
 22 23  1  0
 23 24  1  6
  7 25  1  0
  4 26  1  0
 25 26  1  0
M  END
