piperidine-amides-29524-covalent
     RDKit          3D

 26 27  0  0  0  0  0  0  0  0999 V2000
    7.0040   -3.3480   19.3520 C   0  0  0  0  0  0  0  0  0  0  0  0
    6.3300   -4.1700   20.3560 C   0  0  0  0  0  0  0  0  0  0  0  0
    5.3940   -4.8860   19.9960 O   0  0  0  0  0  0  0  0  0  0  0  0
    6.7630   -4.1930   21.7380 N   0  0  0  0  0  0  0  0  0  0  0  0
    7.6470   -3.1550   22.2410 C   0  0  0  0  0  0  0  0  0  0  0  0
    7.4520   -2.9520   23.7220 C   0  0  0  0  0  0  0  0  0  0  0  0
    6.1620   -3.6580   24.0730 C   0  0  0  0  0  0  0  0  0  0  0  0
    5.5860   -3.3020   25.4270 C   0  0  0  0  0  0  0  0  0  0  0  0
    4.3540   -3.1860   25.5550 O   0  0  0  0  0  0  0  0  0  0  0  0
    6.3750   -3.0760   26.6080 N   0  0  0  0  0  0  0  0  0  0  0  0
    6.2880   -4.0750   27.6690 C   0  0  0  0  0  0  0  0  0  0  0  0
    6.0430   -5.4600   27.1200 C   0  0  0  0  0  0  0  0  0  0  0  0
    4.8950   -5.9840   27.6860 O   0  0  0  0  0  0  0  0  0  0  0  0
    6.2830   -1.7720   27.2360 C   0  0  0  0  0  0  0  0  0  0  0  0
    7.1080   -1.3860   28.3060 C   0  0  0  0  0  0  0  0  0  0  0  0
    6.7200   -0.3130   29.0770 C   0  0  0  0  0  0  0  0  0  0  0  0
    6.1900    0.8270   28.4050 N   0  0  0  0  0  0  0  0  0  0  0  0
    5.2970    1.7270   29.0720 C   0  0  0  0  0  0  0  0  0  0  0  0
    4.8020    2.7160   28.2470 O   0  0  0  0  0  0  0  0  0  0  0  0
    4.9640    1.6430   30.3360 O   0  0  0  0  0  0  0  0  0  0  0  0
    4.1800    2.5780   31.0300 C   0  0  0  0  0  0  0  0  0  0  0  0
    4.7970    3.8000   30.8620 C   0  0  0  0  0  0  0  0  0  0  0  0
    5.8440    0.6990   27.1040 C   0  0  0  0  0  0  0  0  0  0  0  0
    5.9660   -0.6480   26.5270 C   0  0  0  0  0  0  0  0  0  0  0  0
    6.2230   -5.1560   23.8220 C   0  0  0  0  0  0  0  0  0  0  0  0
    6.6170   -5.4090   22.5000 C   0  0  0  0  0  0  0  0  0  0  0  0
  1  2  1  0
  2  3  2  0
  2  4  1  0
  4  5  1  0
  5  6  1  0
  6  7  1  0
  7  8  1  0
  8  9  2  0
  8 10  1  0
 10 11  1  0
 11 12  1  0
 12 13  1  0
 10 14  1  0
 14 15  1  0
 15 16  1  0
 16 17  1  0
 17 18  1  0
 18 19  2  0
 18 20  1  0
 20 21  1  0
 21 22  1  0
 17 23  1  0
 14 24  1  0
 23 24  1  0
  7 25  1  0
  4 26  1  0
 25 26  1  0
M  END
