piperidine-amides-5281-covalent
     RDKit          3D

 21 22  0  0  0  0  0  0  0  0999 V2000
    7.1370   -3.2880   19.2210 C   0  0  0  0  0  0  0  0  0  0  0  0
    6.3590   -4.0300   20.2360 C   0  0  0  0  0  0  0  0  0  0  0  0
    5.2690   -4.5050   19.8640 O   0  0  0  0  0  0  0  0  0  0  0  0
    6.8650   -4.2300   21.5260 N   0  0  0  0  0  0  0  0  0  0  0  0
    6.4490   -5.3530   22.2960 C   0  0  0  0  0  0  0  0  0  0  0  0
    6.0380   -5.0150   23.6630 C   0  0  0  0  0  0  0  0  0  0  0  0
    6.6720   -3.8020   24.2320 C   0  0  0  0  0  0  0  0  0  0  0  0
    5.9190   -3.3470   25.4250 C   0  0  0  0  0  0  0  0  0  0  0  0
    4.7780   -2.8730   25.2560 O   0  0  0  0  0  0  0  0  0  0  0  0
    6.4700   -3.4490   26.7180 N   0  0  0  0  0  0  0  0  0  0  0  0
    6.7760   -4.7660   27.3340 C   0  0  0  0  0  0  0  0  0  0  0  0
    5.6440   -5.7100   27.1780 C   0  0  0  0  0  0  0  0  0  0  0  0
    5.1130   -6.3890   28.3530 C   0  0  0  0  0  0  0  0  0  0  0  0
    6.0670   -6.6360   29.3770 N   0  0  0  0  0  0  0  0  0  0  0  0
    5.6420   -7.2820   30.5440 C   0  0  0  0  0  0  0  0  0  0  0  0
    4.3210   -7.6680   30.6800 C   0  0  0  0  0  0  0  0  0  0  0  0
    3.4220   -7.4190   29.6710 C   0  0  0  0  0  0  0  0  0  0  0  0
    3.8230   -6.7830   28.5190 C   0  0  0  0  0  0  0  0  0  0  0  0
    2.8930   -6.5320   27.4940 F   0  0  0  0  0  0  0  0  0  0  0  0
    6.9080   -2.7180   23.2440 C   0  0  0  0  0  0  0  0  0  0  0  0
    7.6470   -3.2000   22.1720 C   0  0  0  0  0  0  0  0  0  0  0  0
  1  2  1  0
  2  3  2  0
  2  4  1  0
  4  5  1  0
  5  6  1  0
  6  7  1  0
  7  8  1  0
  8  9  2  0
  8 10  1  0
 10 11  1  0
 11 12  1  0
 12 13  1  0
 13 14  2  0
 14 15  1  0
 15 16  2  0
 16 17  1  0
 13 18  1  0
 17 18  2  0
 18 19  1  0
  7 20  1  0
  4 21  1  0
 20 21  1  0
M  END
