piperidine-amides-12771-covalent
     RDKit          3D

 22 23  0  0  0  0  0  0  0  0999 V2000
    7.0940   -3.2960   19.2640 C   0  0  0  0  0  0  0  0  0  0  0  0
    6.3620   -4.0970   20.2690 C   0  0  0  0  0  0  0  0  0  0  0  0
    5.2910   -4.6150   19.9020 O   0  0  0  0  0  0  0  0  0  0  0  0
    6.8900   -4.3000   21.5480 N   0  0  0  0  0  0  0  0  0  0  0  0
    7.5800   -3.2260   22.1840 C   0  0  0  0  0  0  0  0  0  0  0  0
    7.0230   -2.8320   23.4780 C   0  0  0  0  0  0  0  0  0  0  0  0
    6.4840   -3.9460   24.2820 C   0  0  0  0  0  0  0  0  0  0  0  0
    5.7350   -3.4540   25.4740 C   0  0  0  0  0  0  0  0  0  0  0  0
    4.4860   -3.3830   25.4410 O   0  0  0  0  0  0  0  0  0  0  0  0
    6.4120   -3.0790   26.6440 N   0  0  0  0  0  0  0  0  0  0  0  0
    6.3920   -1.7050   27.2040 C   0  0  0  0  0  0  0  0  0  0  0  0
    6.9680   -1.6080   28.5510 C   0  0  0  0  0  0  0  0  0  0  0  0
    7.0340   -0.3620   29.2710 C   0  0  0  0  0  0  0  0  0  0  0  0
    6.5390    0.7850   28.6790 C   0  0  0  0  0  0  0  0  0  0  0  0
    6.5780    1.8790   29.2700 O   0  0  0  0  0  0  0  0  0  0  0  0
    5.9480    1.8410   30.4090 C   0  0  0  0  0  0  0  0  0  0  0  0
    5.9530    0.6830   27.2980 C   0  0  0  0  0  0  0  0  0  0  0  0
    5.4700    1.8200   26.7180 C   0  0  0  0  0  0  0  0  0  0  0  0
    4.3750    2.2320   27.3680 N   0  0  0  0  0  0  0  0  0  0  0  0
    5.8950   -0.5340   26.6100 C   0  0  0  0  0  0  0  0  0  0  0  0
    5.6810   -4.9040   23.4460 C   0  0  0  0  0  0  0  0  0  0  0  0
    6.5310   -5.4360   22.3620 C   0  0  0  0  0  0  0  0  0  0  0  0
  1  2  1  0
  2  3  2  0
  2  4  1  0
  4  5  1  0
  5  6  1  0
  6  7  1  0
  7  8  1  0
  8  9  2  0
  8 10  1  0
 10 11  1  0
 11 12  2  0
 12 13  1  0
 13 14  2  0
 14 15  1  0
 15 16  1  0
 14 17  1  0
 17 18  1  0
 18 19  3  0
 11 20  1  0
 17 20  2  0
  7 21  1  0
  4 22  1  0
 21 22  1  0
M  END
