piperidine-amides-25115-covalent
     RDKit          3D

 25 27  0  0  0  0  0  0  0  0999 V2000
    7.0780   -3.3440   19.3140 C   0  0  0  0  0  0  0  0  0  0  0  0
    6.4210   -4.2160   20.3170 C   0  0  0  0  0  0  0  0  0  0  0  0
    5.3800   -4.7730   19.9700 O   0  0  0  0  0  0  0  0  0  0  0  0
    7.0210   -4.4210   21.5650 N   0  0  0  0  0  0  0  0  0  0  0  0
    6.6980   -5.5570   22.3720 C   0  0  0  0  0  0  0  0  0  0  0  0
    5.7810   -5.1010   23.4670 C   0  0  0  0  0  0  0  0  0  0  0  0
    6.3380   -3.8880   24.2350 C   0  0  0  0  0  0  0  0  0  0  0  0
    5.2170   -3.4210   25.0760 C   0  0  0  0  0  0  0  0  0  0  0  0
    4.0660   -3.6160   24.6860 O   0  0  0  0  0  0  0  0  0  0  0  0
    5.3750   -2.7630   26.2970 N   0  0  0  0  0  0  0  0  0  0  0  0
    6.5680   -2.9520   27.0230 C   0  0  0  0  0  0  0  0  0  0  0  0
    6.4120   -4.0860   28.0580 C   0  0  0  0  0  0  0  0  0  0  0  0
    5.4990   -3.9540   29.0460 C   0  0  0  0  0  0  0  0  0  0  0  0
    5.6050   -2.8450   29.8070 C   0  0  0  0  0  0  0  0  0  0  0  0
    4.4330   -2.1010   30.2030 N   0  0  0  0  0  0  0  0  0  0  0  0
    5.2740   -5.2080   29.8620 C   0  0  0  0  0  0  0  0  0  0  0  0
    6.2500   -6.3780   29.6090 C   0  0  0  0  0  0  0  0  0  0  0  0
    5.9920   -7.6200   30.4700 C   0  0  0  0  0  0  0  0  0  0  0  0
    4.8510   -7.6140   31.4650 C   0  0  0  0  0  0  0  0  0  0  0  0
    4.1000   -6.3890   31.4800 C   0  0  0  0  0  0  0  0  0  0  0  0
    4.3000   -5.3270   30.7580 N   0  0  0  0  0  0  0  0  0  0  0  0
    4.5380   -3.9570   28.1180 C   0  0  0  0  0  0  0  0  0  0  0  0
    4.3510   -2.7150   27.3170 C   0  0  0  0  0  0  0  0  0  0  0  0
    6.8030   -2.7730   23.3160 C   0  0  0  0  0  0  0  0  0  0  0  0
    7.6990   -3.3570   22.2660 C   0  0  0  0  0  0  0  0  0  0  0  0
  1  2  1  0
  2  3  2  0
  2  4  1  0
  4  5  1  0
  5  6  1  0
  6  7  1  0
  7  8  1  0
  8  9  2  0
  8 10  1  0
 10 11  1  0
 11 12  1  0
 12 13  1  0
 13 14  1  0
 14 15  3  0
 13 16  1  0
 16 17  2  0
 17 18  1  0
 18 19  2  0
 19 20  1  0
 16 21  1  0
 20 21  2  0
 13 22  1  0
 10 23  1  0
 22 23  1  0
  7 24  1  0
  4 25  1  0
 24 25  1  0
M  END
