piperidine-amides-19469-covalent
     RDKit          3D

 22 23  0  0  0  0  0  0  0  0999 V2000
    7.0570   -3.3280   19.4190 C   0  0  0  0  0  0  0  0  0  0  0  0
    6.3410   -4.1500   20.3730 C   0  0  0  0  0  0  0  0  0  0  0  0
    5.3780   -4.8700   19.9680 O   0  0  0  0  0  0  0  0  0  0  0  0
    6.6900   -4.1920   21.7330 N   0  0  0  0  0  0  0  0  0  0  0  0
    6.4350   -5.4570   22.4570 C   0  0  0  0  0  0  0  0  0  0  0  0
    5.7710   -4.9270   23.7990 C   0  0  0  0  0  0  0  0  0  0  0  0
    5.7820   -3.4100   23.7400 C   0  0  0  0  0  0  0  0  0  0  0  0
    4.9520   -2.7340   24.9420 C   0  0  0  0  0  0  0  0  0  0  0  0
    3.7520   -2.6440   24.7560 O   0  0  0  0  0  0  0  0  0  0  0  0
    5.8650   -2.5110   25.7460 N   0  0  0  0  0  0  0  0  0  0  0  0
    6.9900   -2.7640   26.2250 C   0  0  0  0  0  0  0  0  0  0  0  0
    5.8120   -1.2640   26.4210 C   0  0  0  0  0  0  0  0  0  0  0  0
    5.2830   -0.0120   25.9970 C   0  0  0  0  0  0  0  0  0  0  0  0
    5.1940    1.3430   26.6340 C   0  0  0  0  0  0  0  0  0  0  0  0
    5.8070    1.3640   28.0350 C   0  0  0  0  0  0  0  0  0  0  0  0
    6.3740    0.2010   28.5990 N   0  0  0  0  0  0  0  0  0  0  0  0
    6.3620   -0.9720   27.8390 C   0  0  0  0  0  0  0  0  0  0  0  0
    6.9500   -1.8580   28.5990 N   0  0  0  0  0  0  0  0  0  0  0  0
    7.7660   -1.3310   29.6820 C   0  0  0  0  0  0  0  0  0  0  0  0
    6.2620   -3.0940   28.8480 C   0  0  0  0  0  0  0  0  0  0  0  0
    7.1740   -2.8920   23.5140 C   0  0  0  0  0  0  0  0  0  0  0  0
    7.5950   -3.2240   22.2600 C   0  0  0  0  0  0  0  0  0  0  0  0
  1  2  1  0
  2  3  2  0
  2  4  1  0
  4  5  1  0
  5  6  1  0
  6  7  1  0
  7  8  1  0
  8  9  2  0
  8 10  1  0
 10 11  1  0
 10 12  1  0
 12 13  2  0
 13 14  1  0
 14 15  2  0
 15 16  1  0
 12 17  1  0
 16 17  2  0
 17 18  1  0
 18 19  1  0
 18 20  1  0
  7 21  1  0
  4 22  1  0
 21 22  1  0
M  END
