piperidine-amides-8738-covalent
     RDKit          3D

 23 24  0  0  0  0  0  0  0  0999 V2000
    7.0530   -3.3310   19.3120 C   0  0  0  0  0  0  0  0  0  0  0  0
    6.3720   -4.1630   20.3000 C   0  0  0  0  0  0  0  0  0  0  0  0
    5.3450   -4.7700   19.9560 O   0  0  0  0  0  0  0  0  0  0  0  0
    6.9050   -4.3020   21.6020 N   0  0  0  0  0  0  0  0  0  0  0  0
    7.6820   -3.2330   22.1760 C   0  0  0  0  0  0  0  0  0  0  0  0
    6.9400   -2.6490   23.3350 C   0  0  0  0  0  0  0  0  0  0  0  0
    6.5970   -3.8260   24.2010 C   0  0  0  0  0  0  0  0  0  0  0  0
    5.7460   -3.3830   25.3530 C   0  0  0  0  0  0  0  0  0  0  0  0
    4.5320   -3.3680   25.1610 O   0  0  0  0  0  0  0  0  0  0  0  0
    6.3680   -3.0180   26.5380 N   0  0  0  0  0  0  0  0  0  0  0  0
    6.2760   -1.6950   27.0550 C   0  0  0  0  0  0  0  0  0  0  0  0
    5.5440   -0.5980   26.5480 C   0  0  0  0  0  0  0  0  0  0  0  0
    5.5240    0.6590   27.1410 C   0  0  0  0  0  0  0  0  0  0  0  0
    6.2400    0.9390   28.2940 C   0  0  0  0  0  0  0  0  0  0  0  0
    6.0260    2.3700   28.6800 C   0  0  0  0  0  0  0  0  0  0  0  0
    6.9830   -0.0290   28.8730 C   0  0  0  0  0  0  0  0  0  0  0  0
    7.6630    0.1900   29.8920 O   0  0  0  0  0  0  0  0  0  0  0  0
    7.0060    0.0950   31.0960 C   0  0  0  0  0  0  0  0  0  0  0  0
    6.8260    1.3620   31.6430 F   0  0  0  0  0  0  0  0  0  0  0  0
    5.8250   -0.5630   30.8830 F   0  0  0  0  0  0  0  0  0  0  0  0
    7.0560   -1.4000   28.3150 C   0  0  0  0  0  0  0  0  0  0  0  0
    5.9010   -4.9430   23.5460 C   0  0  0  0  0  0  0  0  0  0  0  0
    6.5710   -5.4290   22.4470 C   0  0  0  0  0  0  0  0  0  0  0  0
  1  2  1  0
  2  3  2  0
  2  4  1  0
  4  5  1  0
  5  6  1  0
  6  7  1  0
  7  8  1  0
  8  9  2  0
  8 10  1  0
 10 11  1  0
 11 12  2  0
 12 13  1  0
 13 14  2  0
 14 15  1  0
 14 16  1  0
 16 17  1  0
 17 18  1  0
 18 19  1  0
 18 20  1  0
 11 21  1  0
 16 21  2  0
  7 22  1  0
  4 23  1  0
 22 23  1  0
M  END
