piperidine-amides-27289-covalent
     RDKit          3D

 25 26  0  0  0  0  0  0  0  0999 V2000
    7.0410   -3.4070   19.4500 C   0  0  0  0  0  0  0  0  0  0  0  0
    6.3820   -4.2640   20.4380 C   0  0  0  0  0  0  0  0  0  0  0  0
    5.4050   -4.9330   20.0080 O   0  0  0  0  0  0  0  0  0  0  0  0
    6.8700   -4.3390   21.7590 N   0  0  0  0  0  0  0  0  0  0  0  0
    6.6500   -5.5270   22.5680 C   0  0  0  0  0  0  0  0  0  0  0  0
    5.9990   -5.0810   23.8560 C   0  0  0  0  0  0  0  0  0  0  0  0
    5.9420   -3.5840   23.8580 C   0  0  0  0  0  0  0  0  0  0  0  0
    5.3250   -2.9570   25.0720 C   0  0  0  0  0  0  0  0  0  0  0  0
    4.7980   -1.8490   24.9130 O   0  0  0  0  0  0  0  0  0  0  0  0
    5.2580   -3.4860   26.3710 N   0  0  0  0  0  0  0  0  0  0  0  0
    6.3460   -3.4370   27.2460 C   0  0  0  0  0  0  0  0  0  0  0  0
    6.1920   -4.7600   27.9750 C   0  0  1  0  0  0  0  0  0  0  0  0
    6.8510   -5.2120   29.0620 C   0  0  0  0  0  0  0  0  0  0  0  0
    4.8290   -4.4540   28.4590 C   0  0  2  0  0  0  0  0  0  0  0  0
    3.9270   -5.4090   28.7300 N   0  0  0  0  0  0  0  0  0  0  0  0
    2.8540   -5.1230   29.4640 C   0  0  0  0  0  0  0  0  0  0  0  0
    2.5020   -3.8030   29.6410 O   0  0  0  0  0  0  0  0  0  0  0  0
    2.0790   -6.1030   30.0580 O   0  0  0  0  0  0  0  0  0  0  0  0
    2.5660   -7.4110   30.0420 C   0  0  0  0  0  0  0  0  0  0  0  0
    2.9710   -7.9320   31.2510 C   0  0  0  0  0  0  0  0  0  0  0  0
    4.0450   -7.8030   30.1980 C   0  0  0  0  0  0  0  0  0  0  0  0
    1.7790   -8.3450   29.1700 C   0  0  0  0  0  0  0  0  0  0  0  0
    4.4020   -3.5040   27.5490 C   0  0  0  0  0  0  0  0  0  0  0  0
    7.3120   -3.0180   23.6330 C   0  0  0  0  0  0  0  0  0  0  0  0
    7.7220   -3.2790   22.3350 C   0  0  0  0  0  0  0  0  0  0  0  0
  1  2  1  0
  2  3  2  0
  2  4  1  0
  4  5  1  0
  5  6  1  0
  6  7  1  0
  7  8  1  0
  8  9  2  0
  8 10  1  0
 10 11  1  0
 11 12  1  0
 12 13  1  1
 12 14  1  0
 14 15  1  6
 15 16  1  0
 16 17  2  0
 16 18  1  0
 19 18  1  0
 19 20  1  0
 19 21  1  0
 19 22  1  0
 10 23  1  0
 14 23  1  0
  7 24  1  0
  4 25  1  0
 24 25  1  0
M  END
