piperidine-amides-27058-covalent
     RDKit          3D

 25 26  0  0  0  0  0  0  0  0999 V2000
    7.1280   -3.2790   19.2100 C   0  0  0  0  0  0  0  0  0  0  0  0
    6.3270   -3.9900   20.2060 C   0  0  0  0  0  0  0  0  0  0  0  0
    5.2180   -4.4420   19.8330 O   0  0  0  0  0  0  0  0  0  0  0  0
    6.8270   -4.1960   21.4850 N   0  0  0  0  0  0  0  0  0  0  0  0
    6.4620   -5.3690   22.2420 C   0  0  0  0  0  0  0  0  0  0  0  0
    5.6910   -4.9060   23.4460 C   0  0  0  0  0  0  0  0  0  0  0  0
    6.4690   -3.8670   24.2000 C   0  0  0  0  0  0  0  0  0  0  0  0
    5.7210   -3.4490   25.4110 C   0  0  0  0  0  0  0  0  0  0  0  0
    4.4740   -3.4060   25.3340 O   0  0  0  0  0  0  0  0  0  0  0  0
    6.3320   -3.0960   26.6340 N   0  0  0  0  0  0  0  0  0  0  0  0
    6.7960   -1.7320   26.7810 C   0  0  0  0  0  0  0  0  0  0  0  0
    5.6510   -0.7290   26.7740 C   0  0  0  0  0  0  0  0  0  0  0  0
    4.7290   -0.6390   25.7550 C   0  0  0  0  0  0  0  0  0  0  0  0
    3.7240    0.2860   25.8090 C   0  0  0  0  0  0  0  0  0  0  0  0
    3.5600    1.1690   26.8460 C   0  0  0  0  0  0  0  0  0  0  0  0
    2.5420    2.0660   26.8400 F   0  0  0  0  0  0  0  0  0  0  0  0
    4.4730    1.0940   27.8750 C   0  0  0  0  0  0  0  0  0  0  0  0
    5.5010    0.1590   27.8360 C   0  0  0  0  0  0  0  0  0  0  0  0
    6.3840    0.1040   28.8540 F   0  0  0  0  0  0  0  0  0  0  0  0
    6.2010   -3.9470   27.7740 C   0  0  0  0  0  0  0  0  0  0  0  0
    6.1570   -5.4690   27.5440 C   0  0  0  0  0  0  0  0  0  0  0  0
    6.6410   -6.2680   28.7350 C   0  0  0  0  0  0  0  0  0  0  0  0
    4.7080   -6.0570   27.3650 C   0  0  0  0  0  0  0  0  0  0  0  0
    6.8300   -2.6940   23.3710 C   0  0  0  0  0  0  0  0  0  0  0  0
    7.5590   -3.1340   22.1240 C   0  0  0  0  0  0  0  0  0  0  0  0
  1  2  1  0
  2  3  2  0
  2  4  1  0
  4  5  1  0
  5  6  1  0
  6  7  1  0
  7  8  1  0
  8  9  2  0
  8 10  1  0
 10 11  1  0
 11 12  1  0
 12 13  2  0
 13 14  1  0
 14 15  2  0
 15 16  1  0
 15 17  1  0
 12 18  1  0
 17 18  2  0
 18 19  1  0
 10 20  1  0
 20 21  1  0
 21 22  1  0
 21 23  1  0
  7 24  1  0
  4 25  1  0
 24 25  1  0
M  END
