piperidine-amides-2866-covalent
     RDKit          3D

 24 26  0  0  0  0  0  0  0  0999 V2000
    7.0920   -3.2880   19.2140 C   0  0  0  0  0  0  0  0  0  0  0  0
    6.3460   -4.0340   20.2210 C   0  0  0  0  0  0  0  0  0  0  0  0
    5.2980   -4.6030   19.9120 O   0  0  0  0  0  0  0  0  0  0  0  0
    6.8600   -4.1570   21.5560 N   0  0  0  0  0  0  0  0  0  0  0  0
    6.5200   -5.3020   22.3470 C   0  0  0  0  0  0  0  0  0  0  0  0
    5.6710   -4.8740   23.5150 C   0  0  0  0  0  0  0  0  0  0  0  0
    6.3480   -3.7230   24.2650 C   0  0  0  0  0  0  0  0  0  0  0  0
    5.3680   -3.1980   25.2610 C   0  0  0  0  0  0  0  0  0  0  0  0
    4.2640   -3.7400   25.4420 O   0  0  0  0  0  0  0  0  0  0  0  0
    5.6680   -2.0490   26.0340 N   0  0  0  0  0  0  0  0  0  0  0  0
    6.7090   -2.1430   27.0070 C   0  0  0  0  0  0  0  0  0  0  0  0
    6.3910   -1.2930   28.2160 C   0  0  0  0  0  0  0  0  0  0  0  0
    7.1260   -0.5020   29.0210 N   0  0  0  0  0  0  0  0  0  0  0  0
    6.2960   -0.0060   29.9580 C   0  0  0  0  0  0  0  0  0  0  0  0
    6.6520    0.8460   31.0000 C   0  0  0  0  0  0  0  0  0  0  0  0
    7.4950    0.4750   32.0070 C   0  0  0  0  0  0  0  0  0  0  0  0
    7.8210    1.4150   33.0630 C   0  0  0  0  0  0  0  0  0  0  0  0
    7.3700    2.7180   33.2000 C   0  0  0  0  0  0  0  0  0  0  0  0
    6.5260    3.0430   32.1590 N   0  0  0  0  0  0  0  0  0  0  0  0
    6.1750    2.1240   31.0800 C   0  0  0  0  0  0  0  0  0  0  0  0
    5.0390   -0.4990   29.6980 N   0  0  0  0  0  0  0  0  0  0  0  0
    5.0870   -1.2730   28.6570 O   0  0  0  0  0  0  0  0  0  0  0  0
    6.9800   -2.6540   23.4460 C   0  0  0  0  0  0  0  0  0  0  0  0
    7.5180   -3.0480   22.1460 C   0  0  0  0  0  0  0  0  0  0  0  0
  1  2  1  0
  2  3  2  0
  2  4  1  0
  4  5  1  0
  5  6  1  0
  6  7  1  0
  7  8  1  0
  8  9  2  0
  8 10  1  0
 10 11  1  0
 11 12  1  0
 12 13  2  0
 13 14  1  0
 14 15  1  0
 15 16  2  0
 16 17  1  0
 17 18  2  0
 18 19  1  0
 15 20  1  0
 19 20  2  0
 14 21  2  0
 12 22  1  0
 21 22  1  0
  7 23  1  0
  4 24  1  0
 23 24  1  0
M  END
