piperidine-amides-27028-covalent
     RDKit          3D

 23 25  0  0  0  0  0  0  0  0999 V2000
    7.0380   -3.3520   19.3540 C   0  0  0  0  0  0  0  0  0  0  0  0
    6.3960   -4.1910   20.3720 C   0  0  0  0  0  0  0  0  0  0  0  0
    5.3990   -4.8640   19.9900 O   0  0  0  0  0  0  0  0  0  0  0  0
    6.9110   -4.2490   21.6720 N   0  0  0  0  0  0  0  0  0  0  0  0
    7.7340   -3.1910   22.2310 C   0  0  0  0  0  0  0  0  0  0  0  0
    7.3150   -2.9240   23.6500 C   0  0  0  0  0  0  0  0  0  0  0  0
    6.0330   -3.6360   23.9990 C   0  0  0  0  0  0  0  0  0  0  0  0
    5.5750   -3.3200   25.3760 C   0  0  0  0  0  0  0  0  0  0  0  0
    4.3570   -3.0740   25.5100 O   0  0  0  0  0  0  0  0  0  0  0  0
    6.3700   -3.2670   26.5460 N   0  0  0  0  0  0  0  0  0  0  0  0
    6.4250   -4.4450   27.3860 C   0  0  0  0  0  0  0  0  0  0  0  0
    6.3970   -1.9900   27.2270 C   0  0  0  0  0  0  0  0  0  0  0  0
    6.8720   -1.7600   28.6090 N   0  0  0  0  0  0  0  0  0  0  0  0
    6.8050   -0.5310   29.0540 C   0  0  0  0  0  0  0  0  0  0  0  0
    7.1880   -0.0880   30.2990 C   0  0  0  0  0  0  0  0  0  0  0  0
    7.0910    1.2460   30.7190 C   0  0  0  0  0  0  0  0  0  0  0  0
    6.5780    2.2020   29.8340 C   0  0  0  0  0  0  0  0  0  0  0  0
    6.1650    1.8660   28.5610 C   0  0  0  0  0  0  0  0  0  0  0  0
    5.5130    3.0070   27.4000 Cl  0  0  0  0  0  0  0  0  0  0  0  0
    6.3140    0.4140   28.2210 C   0  0  0  0  0  0  0  0  0  0  0  0
    5.8940   -0.3530   26.7090 S   0  0  0  0  0  0  0  0  0  0  0  0
    6.1400   -5.1150   23.8160 C   0  0  0  0  0  0  0  0  0  0  0  0
    6.6300   -5.4660   22.4330 C   0  0  0  0  0  0  0  0  0  0  0  0
  1  2  1  0
  2  3  2  0
  2  4  1  0
  4  5  1  0
  5  6  1  0
  6  7  1  0
  7  8  1  0
  8  9  2  0
  8 10  1  0
 10 11  1  0
 10 12  1  0
 12 13  2  0
 13 14  1  0
 14 15  2  0
 15 16  1  0
 16 17  2  0
 17 18  1  0
 18 19  1  0
 14 20  1  0
 18 20  2  0
 12 21  1  0
 20 21  1  0
  7 22  1  0
  4 23  1  0
 22 23  1  0
M  END
