piperidine-amides-12967-covalent
     RDKit          3D

 21 21  0  0  0  0  0  0  0  0999 V2000
    7.1030   -3.2470   19.1240 C   0  0  0  0  0  0  0  0  0  0  0  0
    6.3160   -3.9400   20.1690 C   0  0  0  0  0  0  0  0  0  0  0  0
    5.2240   -4.4230   19.8240 O   0  0  0  0  0  0  0  0  0  0  0  0
    6.8050   -4.0930   21.4680 N   0  0  0  0  0  0  0  0  0  0  0  0
    6.4770   -5.2690   22.1880 C   0  0  0  0  0  0  0  0  0  0  0  0
    6.0670   -5.0080   23.5700 C   0  0  0  0  0  0  0  0  0  0  0  0
    6.7960   -3.8960   24.2210 C   0  0  0  0  0  0  0  0  0  0  0  0
    6.0770   -3.4570   25.4380 C   0  0  0  0  0  0  0  0  0  0  0  0
    5.0870   -2.7020   25.3170 O   0  0  0  0  0  0  0  0  0  0  0  0
    6.5130   -3.9050   26.6930 N   0  0  0  0  0  0  0  0  0  0  0  0
    6.6900   -5.3600   26.9560 C   0  0  2  0  0  0  0  0  0  0  0  0
    5.8340   -5.7650   28.1000 C   0  0  0  0  0  0  0  0  0  0  0  0
    4.5030   -6.3240   27.8730 C   0  0  0  0  0  0  0  0  0  0  0  0
    4.2340   -7.2400   28.8620 F   0  0  0  0  0  0  0  0  0  0  0  0
    3.5670   -5.2940   27.9920 F   0  0  0  0  0  0  0  0  0  0  0  0
    4.3780   -6.8710   26.6350 F   0  0  0  0  0  0  0  0  0  0  0  0
    8.0700   -5.5260   27.3080 C   0  0  0  0  0  0  0  0  0  0  0  0
    8.9980   -5.3490   26.3010 C   0  0  0  0  0  0  0  0  0  0  0  0
    8.2730   -4.4300   28.2750 C   0  0  0  0  0  0  0  0  0  0  0  0
    7.1650   -2.7430   23.3470 C   0  0  0  0  0  0  0  0  0  0  0  0
    7.6460   -3.1280   22.1300 C   0  0  0  0  0  0  0  0  0  0  0  0
  1  2  1  0
  2  3  2  0
  2  4  1  0
  4  5  1  0
  5  6  1  0
  6  7  1  0
  7  8  1  0
  8  9  2  0
  8 10  1  0
 10 11  1  0
 11 12  1  1
 12 13  1  0
 13 14  1  0
 13 15  1  0
 13 16  1  0
 11 17  1  0
 17 18  1  0
 17 19  1  0
  7 20  1  0
  4 21  1  0
 20 21  1  0
M  END
