piperidine-amides-19470-covalent
     RDKit          3D

 22 24  0  0  0  0  0  0  0  0999 V2000
    6.9790   -3.4100   19.3960 C   0  0  0  0  0  0  0  0  0  0  0  0
    6.3450   -4.2230   20.4170 C   0  0  0  0  0  0  0  0  0  0  0  0
    5.4050   -4.9770   20.0130 O   0  0  0  0  0  0  0  0  0  0  0  0
    6.7210   -4.2610   21.7900 N   0  0  0  0  0  0  0  0  0  0  0  0
    6.6370   -5.6130   22.4120 C   0  0  0  0  0  0  0  0  0  0  0  0
    6.2810   -5.3200   23.9300 C   0  0  0  0  0  0  0  0  0  0  0  0
    6.1180   -3.8300   24.0540 C   0  0  0  0  0  0  0  0  0  0  0  0
    5.1070   -3.3420   25.2180 C   0  0  0  0  0  0  0  0  0  0  0  0
    4.0750   -2.9900   24.6820 O   0  0  0  0  0  0  0  0  0  0  0  0
    5.5740   -3.4120   26.4160 N   0  0  0  0  0  0  0  0  0  0  0  0
    6.3910   -3.4420   27.4470 C   0  0  0  0  0  0  0  0  0  0  0  0
    6.7390   -4.3740   28.3800 C   0  0  0  0  0  0  0  0  0  0  0  0
    5.6950   -4.4070   29.2520 C   0  0  0  0  0  0  0  0  0  0  0  0
    4.4340   -4.1740   28.5330 C   0  0  2  0  0  0  0  0  0  0  0  0
    3.6380   -5.2990   28.2320 N   0  0  0  0  0  0  0  0  0  0  0  0
    2.4020   -5.7900   28.8130 C   0  0  0  0  0  0  0  0  0  0  0  0
    2.1200   -6.9390   28.0680 C   0  0  0  0  0  0  0  0  0  0  0  0
    3.0460   -7.1760   27.1170 N   0  0  0  0  0  0  0  0  0  0  0  0
    4.0900   -6.1480   27.1510 C   0  0  0  0  0  0  0  0  0  0  0  0
    4.5100   -3.2330   27.3880 C   0  0  0  0  0  0  0  0  0  0  0  0
    7.3870   -3.1230   23.7090 C   0  0  0  0  0  0  0  0  0  0  0  0
    7.5950   -3.2460   22.3480 C   0  0  0  0  0  0  0  0  0  0  0  0
  1  2  1  0
  2  3  2  0
  2  4  1  0
  4  5  1  0
  5  6  1  0
  6  7  1  0
  7  8  1  0
  8  9  2  0
  8 10  1  0
 10 11  1  0
 11 12  1  0
 12 13  1  0
 13 14  1  0
 14 15  1  6
 15 16  1  0
 16 17  2  0
 17 18  1  0
 15 19  1  0
 18 19  2  0
 10 20  1  0
 14 20  1  0
  7 21  1  0
  4 22  1  0
 21 22  1  0
M  END
