piperidine-amides-33006-covalent
     RDKit          3D

 29 32  0  0  0  0  0  0  0  0999 V2000
    7.0400   -3.3630   19.4240 C   0  0  0  0  0  0  0  0  0  0  0  0
    6.3720   -4.2750   20.3870 C   0  0  0  0  0  0  0  0  0  0  0  0
    5.3700   -4.9030   19.9980 O   0  0  0  0  0  0  0  0  0  0  0  0
    6.8990   -4.4600   21.6920 N   0  0  0  0  0  0  0  0  0  0  0  0
    6.5240   -5.5750   22.5100 C   0  0  0  0  0  0  0  0  0  0  0  0
    5.5620   -5.0170   23.5750 C   0  0  0  0  0  0  0  0  0  0  0  0
    6.2430   -3.9100   24.3360 C   0  0  0  0  0  0  0  0  0  0  0  0
    5.3800   -3.3210   25.4230 C   0  0  0  0  0  0  0  0  0  0  0  0
    4.5760   -2.4860   25.0150 O   0  0  0  0  0  0  0  0  0  0  0  0
    5.4460   -3.6750   26.8060 N   0  0  0  0  0  0  0  0  0  0  0  0
    6.3390   -4.5330   27.3860 C   0  0  0  0  0  0  0  0  0  0  0  0
    6.0670   -4.8850   28.6120 C   0  0  0  0  0  0  0  0  0  0  0  0
    5.0200   -4.0560   28.9450 C   0  0  0  0  0  0  0  0  0  0  0  0
    4.5870   -3.2410   27.8710 C   0  0  1  0  0  0  0  0  0  0  0  0
    4.3010   -1.8180   28.2110 C   0  0  0  0  0  0  0  0  0  0  0  0
    5.3530   -1.0250   28.3990 O   0  0  0  0  0  0  0  0  0  0  0  0
    2.9110   -1.5340   28.2860 N   0  0  0  0  0  0  0  0  0  0  0  0
    1.9260   -2.4820   27.8110 C   0  0  0  0  0  0  0  0  0  0  0  0
    0.7330   -2.3810   28.7490 C   0  0  0  0  0  0  0  0  0  0  0  0
    1.0490   -1.4240   29.6720 C   0  0  0  0  0  0  0  0  0  0  0  0
    2.3990   -0.8530   29.4410 C   0  0  2  0  0  0  0  0  0  0  0  0
    1.8070    0.5420   29.2740 C   0  0  0  0  0  0  0  0  0  0  0  0
    1.1920    1.0290   30.4200 C   0  0  0  0  0  0  0  0  0  0  0  0
    2.1740    2.1060   29.8600 C   0  0  0  0  0  0  0  0  0  0  0  0
    1.7330    2.9390   28.6710 C   0  0  0  0  0  0  0  0  0  0  0  0
    1.0170    2.0890   27.6450 C   0  0  0  0  0  0  0  0  0  0  0  0
    1.0460    0.6860   28.1080 C   0  0  0  0  0  0  0  0  0  0  0  0
    6.8190   -2.8300   23.4150 C   0  0  0  0  0  0  0  0  0  0  0  0
    7.5610   -3.3750   22.3990 C   0  0  0  0  0  0  0  0  0  0  0  0
  1  2  1  0
  2  3  2  0
  2  4  1  0
  4  5  1  0
  5  6  1  0
  6  7  1  0
  7  8  1  0
  8  9  2  0
  8 10  1  0
 10 11  1  0
 11 12  1  0
 12 13  1  0
 10 14  1  0
 13 14  1  0
 14 15  1  1
 15 16  2  0
 15 17  1  0
 17 18  1  0
 18 19  1  0
 19 20  1  0
 17 21  1  0
 20 21  1  0
 21 22  1  6
 22 23  1  0
 23 24  1  0
 24 25  1  0
 25 26  1  0
 22 27  1  0
 26 27  1  0
  7 28  1  0
  4 29  1  0
 28 29  1  0
M  END
