piperidine-amides-30184-covalent
     RDKit          3D

 27 28  0  0  0  0  0  0  0  0999 V2000
    7.1000   -3.2690   19.2340 C   0  0  0  0  0  0  0  0  0  0  0  0
    6.3380   -4.0270   20.2270 C   0  0  0  0  0  0  0  0  0  0  0  0
    5.3030   -4.6020   19.8990 O   0  0  0  0  0  0  0  0  0  0  0  0
    6.8120   -4.1430   21.5770 N   0  0  0  0  0  0  0  0  0  0  0  0
    6.5870   -5.3720   22.3000 C   0  0  0  0  0  0  0  0  0  0  0  0
    6.2230   -5.0930   23.7360 C   0  0  0  0  0  0  0  0  0  0  0  0
    6.2710   -3.5920   23.9900 C   0  0  0  0  0  0  0  0  0  0  0  0
    6.0280   -3.2600   25.4210 C   0  0  0  0  0  0  0  0  0  0  0  0
    4.8940   -2.9310   25.8240 O   0  0  0  0  0  0  0  0  0  0  0  0
    7.1170   -3.2880   26.3460 N   0  0  0  0  0  0  0  0  0  0  0  0
    7.7720   -2.0360   26.6020 C   0  0  0  0  0  0  0  0  0  0  0  0
    7.1590   -4.3410   27.3390 C   0  0  0  0  0  0  0  0  0  0  0  0
    6.6260   -5.5750   27.0320 C   0  0  0  0  0  0  0  0  0  0  0  0
    5.7910   -6.5070   27.0280 O   0  0  0  0  0  0  0  0  0  0  0  0
    5.6340   -4.9450   27.8600 N   0  0  0  0  0  0  0  0  0  0  0  0
    5.0650   -5.8240   28.8380 C   0  0  0  0  0  0  0  0  0  0  0  0
    5.9940   -6.4770   29.6340 C   0  0  0  0  0  0  0  0  0  0  0  0
    5.5130   -7.3840   30.6580 C   0  0  0  0  0  0  0  0  0  0  0  0
    4.1850   -7.6130   30.8580 C   0  0  0  0  0  0  0  0  0  0  0  0
    3.3090   -6.9490   30.0470 C   0  0  0  0  0  0  0  0  0  0  0  0
    3.6980   -6.0610   29.0420 C   0  0  0  0  0  0  0  0  0  0  0  0
    2.6410   -5.4110   28.2440 C   0  0  0  0  0  0  0  0  0  0  0  0
    1.5780   -4.6660   28.7320 O   0  0  0  0  0  0  0  0  0  0  0  0
    2.8030   -5.6250   26.8780 O   0  0  0  0  0  0  0  0  0  0  0  0
    2.7180   -4.5260   25.9570 C   0  0  0  0  0  0  0  0  0  0  0  0
    7.5840   -3.0240   23.5480 C   0  0  0  0  0  0  0  0  0  0  0  0
    7.6850   -3.1300   22.0740 C   0  0  0  0  0  0  0  0  0  0  0  0
  1  2  1  0
  2  3  2  0
  2  4  1  0
  4  5  1  0
  5  6  1  0
  6  7  1  0
  7  8  1  0
  8  9  2  0
  8 10  1  0
 10 11  1  0
 10 12  1  0
 12 13  1  0
 13 14  2  0
 13 15  1  0
 15 16  1  0
 16 17  2  0
 17 18  1  0
 18 19  2  0
 19 20  1  0
 16 21  1  0
 20 21  2  0
 21 22  1  0
 22 23  2  0
 22 24  1  0
 24 25  1  0
  7 26  1  0
  4 27  1  0
 26 27  1  0
M  END
