piperidine-amides-33574-covalent
     RDKit          3D

 30 32  0  0  0  0  0  0  0  0999 V2000
    7.1140   -3.2820   19.2140 C   0  0  0  0  0  0  0  0  0  0  0  0
    6.3690   -4.0320   20.2380 C   0  0  0  0  0  0  0  0  0  0  0  0
    5.2800   -4.5420   19.8850 O   0  0  0  0  0  0  0  0  0  0  0  0
    6.8930   -4.2180   21.5380 N   0  0  0  0  0  0  0  0  0  0  0  0
    6.5200   -5.3840   22.2710 C   0  0  0  0  0  0  0  0  0  0  0  0
    6.0650   -5.1340   23.6390 C   0  0  0  0  0  0  0  0  0  0  0  0
    6.1430   -3.7250   24.0850 C   0  0  0  0  0  0  0  0  0  0  0  0
    5.9240   -3.6010   25.5600 C   0  0  0  0  0  0  0  0  0  0  0  0
    4.8060   -3.8970   26.0230 O   0  0  0  0  0  0  0  0  0  0  0  0
    6.9360   -3.1190   26.4180 N   0  0  0  0  0  0  0  0  0  0  0  0
    7.2850   -1.7600   26.5090 C   0  0  0  0  0  0  0  0  0  0  0  0
    6.3230   -0.7450   26.0670 C   0  0  0  0  0  0  0  0  0  0  0  0
    6.1230   -0.2770   24.7350 N   0  0  0  0  0  0  0  0  0  0  0  0
    5.1110    0.6490   24.8910 C   0  0  0  0  0  0  0  0  0  0  0  0
    4.2510    1.5780   24.3340 C   0  0  0  0  0  0  0  0  0  0  0  0
    4.7870    0.6640   26.2970 C   0  0  0  0  0  0  0  0  0  0  0  0
    3.6990    1.6890   26.3390 C   0  0  0  0  0  0  0  0  0  0  0  0
    5.5340   -0.2030   27.0580 O   0  0  0  0  0  0  0  0  0  0  0  0
    7.5260   -3.9770   27.4220 C   0  0  2  0  0  0  0  0  0  0  0  0
    8.3850   -4.9970   26.6970 C   0  0  0  0  0  0  0  0  0  0  0  0
    6.5740   -4.6620   28.3880 C   0  0  0  0  0  0  0  0  0  0  0  0
    7.0640   -6.1140   28.5910 C   0  0  0  0  0  0  0  0  0  0  0  0
    6.2440   -6.9480   29.5320 C   0  0  0  0  0  0  0  0  0  0  0  0
    5.1160   -6.4900   30.2000 C   0  0  0  0  0  0  0  0  0  0  0  0
    4.3360   -7.1970   31.0800 C   0  0  0  0  0  0  0  0  0  0  0  0
    5.0700   -7.7090   32.2990 C   0  0  0  0  0  0  0  0  0  0  0  0
    4.7020   -5.0990   29.9560 C   0  0  0  0  0  0  0  0  0  0  0  0
    5.4540   -4.1810   29.0320 C   0  0  0  0  0  0  0  0  0  0  0  0
    7.3910   -3.0660   23.6430 C   0  0  0  0  0  0  0  0  0  0  0  0
    7.7070   -3.2440   22.2150 C   0  0  0  0  0  0  0  0  0  0  0  0
  1  2  1  0
  2  3  2  0
  2  4  1  0
  4  5  1  0
  5  6  1  0
  6  7  1  0
  7  8  1  0
  8  9  2  0
  8 10  1  0
 10 11  1  0
 11 12  1  0
 12 13  2  0
 13 14  1  0
 14 15  1  0
 14 16  2  0
 16 17  1  0
 12 18  1  0
 16 18  1  0
 10 19  1  0
 19 20  1  6
 19 21  1  0
 21 22  2  0
 22 23  1  0
 23 24  2  0
 24 25  1  0
 25 26  1  0
 24 27  1  0
 21 28  1  0
 27 28  2  0
  7 29  1  0
  4 30  1  0
 29 30  1  0
M  END
