piperidine-amides-4942-covalent
     RDKit          3D

 23 24  0  0  0  0  0  0  0  0999 V2000
    7.0820   -3.3040   19.2060 C   0  0  0  0  0  0  0  0  0  0  0  0
    6.3620   -4.0790   20.2380 C   0  0  0  0  0  0  0  0  0  0  0  0
    5.2780   -4.5830   19.8950 O   0  0  0  0  0  0  0  0  0  0  0  0
    6.9100   -4.2900   21.5090 N   0  0  0  0  0  0  0  0  0  0  0  0
    7.6200   -3.2350   22.1640 C   0  0  0  0  0  0  0  0  0  0  0  0
    7.1270   -2.8890   23.4910 C   0  0  0  0  0  0  0  0  0  0  0  0
    6.4720   -3.9950   24.2200 C   0  0  0  0  0  0  0  0  0  0  0  0
    5.6990   -3.4610   25.3630 C   0  0  0  0  0  0  0  0  0  0  0  0
    4.4730   -3.2910   25.2170 O   0  0  0  0  0  0  0  0  0  0  0  0
    6.3090   -3.1370   26.5870 N   0  0  0  0  0  0  0  0  0  0  0  0
    6.2680   -1.7660   27.1390 C   0  0  0  0  0  0  0  0  0  0  0  0
    5.4390   -0.6520   26.5810 C   0  0  0  0  0  0  0  0  0  0  0  0
    5.3830    0.7140   27.1190 C   0  0  0  0  0  0  0  0  0  0  0  0
    6.1390    1.0410   28.2170 C   0  0  0  0  0  0  0  0  0  0  0  0
    6.2210    2.2660   28.8490 C   0  0  0  0  0  0  0  0  0  0  0  0
    6.9860    0.0170   28.8300 C   0  0  0  0  0  0  0  0  0  0  0  0
    7.7870    0.3070   29.9210 O   0  0  0  0  0  0  0  0  0  0  0  0
    7.4140   -0.0560   31.2100 C   0  0  0  0  0  0  0  0  0  0  0  0
    8.1730    0.4960   32.1940 C   0  0  0  0  0  0  0  0  0  0  0  0
    6.1030    0.1270   31.6470 C   0  0  0  0  0  0  0  0  0  0  0  0
    7.0840   -1.3680   28.3480 C   0  0  0  0  0  0  0  0  0  0  0  0
    5.6220   -4.8860   23.3880 C   0  0  0  0  0  0  0  0  0  0  0  0
    6.4910   -5.4220   22.2960 C   0  0  0  0  0  0  0  0  0  0  0  0
  1  2  1  0
  2  3  2  0
  2  4  1  0
  4  5  1  0
  5  6  1  0
  6  7  1  0
  7  8  1  0
  8  9  2  0
  8 10  1  0
 10 11  1  0
 11 12  2  0
 12 13  1  0
 13 14  2  0
 14 15  1  0
 14 16  1  0
 16 17  1  0
 17 18  1  0
 18 19  1  0
 18 20  1  0
 11 21  1  0
 16 21  2  0
  7 22  1  0
  4 23  1  0
 22 23  1  0
M  END
