piperidine-amides-34340-covalent
     RDKit          3D

 31 35  0  0  0  0  0  0  0  0999 V2000
    7.0910   -3.2570   19.2530 C   0  0  0  0  0  0  0  0  0  0  0  0
    6.3700   -4.0510   20.2630 C   0  0  0  0  0  0  0  0  0  0  0  0
    5.3520   -4.7020   19.9400 O   0  0  0  0  0  0  0  0  0  0  0  0
    6.8300   -4.1250   21.5840 N   0  0  0  0  0  0  0  0  0  0  0  0
    7.6740   -3.0590   22.1120 C   0  0  0  0  0  0  0  0  0  0  0  0
    7.3780   -2.8810   23.6110 C   0  0  0  0  0  0  0  0  0  0  0  0
    6.0210   -3.4910   23.8570 C   0  0  0  0  0  0  0  0  0  0  0  0
    5.6570   -3.4220   25.2830 C   0  0  0  0  0  0  0  0  0  0  0  0
    5.7500   -4.4580   25.9500 O   0  0  0  0  0  0  0  0  0  0  0  0
    5.1850   -2.2340   25.8890 N   0  0  0  0  0  0  0  0  0  0  0  0
    5.7470   -1.9010   27.0910 C   0  0  0  0  0  0  0  0  0  0  0  0
    4.4520   -2.2800   27.8080 C   0  0  0  0  0  0  0  0  0  0  0  0
    4.3000   -3.4740   28.4510 C   0  0  0  0  0  0  0  0  0  0  0  0
    3.7430   -3.1440   29.7150 N   0  0  0  0  0  0  0  0  0  0  0  0
    3.2020   -4.1660   30.5070 C   0  0  0  0  0  0  0  0  0  0  0  0
    3.5650   -1.7810   29.9050 C   0  0  0  0  0  0  0  0  0  0  0  0
    4.0340   -1.2110   28.7450 C   0  0  1  0  0  0  0  0  0  0  0  0
    5.0020   -0.0520   28.9160 C   0  0  0  0  0  0  0  0  0  0  0  0
    5.9460   -1.0420   29.4660 C   0  0  0  0  0  0  0  0  0  0  0  0
    7.2160   -0.3680   29.8380 C   0  0  0  0  0  0  0  0  0  0  0  0
    7.4150    0.9670   29.6700 N   0  0  0  0  0  0  0  0  0  0  0  0
    6.3900    1.7300   29.1390 C   0  0  0  0  0  0  0  0  0  0  0  0
    6.7590    3.0260   29.0510 N   0  0  0  0  0  0  0  0  0  0  0  0
    6.0960    4.0280   28.1900 C   0  0  0  0  0  0  0  0  0  0  0  0
    6.5090    5.2620   28.5510 C   0  0  0  0  0  0  0  0  0  0  0  0
    7.5540    5.1200   29.5680 C   0  0  0  0  0  0  0  0  0  0  0  0
    7.7610    3.6480   29.8070 C   0  0  0  0  0  0  0  0  0  0  0  0
    5.1800    1.2420   28.7550 N   0  0  0  0  0  0  0  0  0  0  0  0
    3.8330   -2.3000   26.3500 C   0  0  0  0  0  0  0  0  0  0  0  0
    5.9130   -4.9400   23.4910 C   0  0  0  0  0  0  0  0  0  0  0  0
    6.6100   -5.2960   22.3850 C   0  0  0  0  0  0  0  0  0  0  0  0
  1  2  1  0
  2  3  2  0
  2  4  1  0
  4  5  1  0
  5  6  1  0
  6  7  1  0
  7  8  1  0
  8  9  2  0
  8 10  1  0
 10 11  1  0
 12 11  1  0
 12 13  1  0
 13 14  1  0
 14 15  1  0
 14 16  1  0
 12 17  1  0
 16 17  1  0
 17 18  1  1
 18 19  2  0
 19 20  1  0
 20 21  2  0
 21 22  1  0
 22 23  1  0
 23 24  1  0
 24 25  1  0
 25 26  1  0
 23 27  1  0
 26 27  1  0
 18 28  1  0
 22 28  2  0
 10 29  1  0
 12 29  1  0
  7 30  1  0
  4 31  1  0
 30 31  1  0
M  END
