piperidine-amides-27222-covalent
     RDKit          3D

 26 29  0  0  0  0  0  0  0  0999 V2000
    6.9850   -3.3890   19.4620 C   0  0  0  0  0  0  0  0  0  0  0  0
    6.3820   -4.2910   20.4550 C   0  0  0  0  0  0  0  0  0  0  0  0
    5.4310   -4.9950   20.0150 O   0  0  0  0  0  0  0  0  0  0  0  0
    6.8580   -4.3880   21.7850 N   0  0  0  0  0  0  0  0  0  0  0  0
    6.6130   -5.5740   22.5950 C   0  0  0  0  0  0  0  0  0  0  0  0
    6.0230   -5.1800   23.9430 C   0  0  0  0  0  0  0  0  0  0  0  0
    5.8900   -3.6870   24.0700 C   0  0  0  0  0  0  0  0  0  0  0  0
    5.1690   -3.1930   25.3070 C   0  0  0  0  0  0  0  0  0  0  0  0
    4.2880   -2.3500   25.0800 O   0  0  0  0  0  0  0  0  0  0  0  0
    5.3330   -3.5460   26.6890 N   0  0  0  0  0  0  0  0  0  0  0  0
    6.5460   -3.3380   27.3230 C   0  0  0  0  0  0  0  0  0  0  0  0
    6.7070   -4.5140   28.3030 C   0  0  0  0  0  0  0  0  0  0  0  0
    5.6250   -4.9700   28.9330 C   0  0  0  0  0  0  0  0  0  0  0  0
    5.4540   -5.8970   29.8940 N   0  0  0  0  0  0  0  0  0  0  0  0
    4.1040   -5.9570   30.1480 C   0  0  0  0  0  0  0  0  0  0  0  0
    3.4120   -5.0690   29.3500 N   0  0  0  0  0  0  0  0  0  0  0  0
    4.4470   -4.4790   28.6030 C   0  0  0  0  0  0  0  0  0  0  0  0
    4.2540   -3.4940   27.6260 C   0  0  1  0  0  0  0  0  0  0  0  0
    4.1710   -2.2110   28.1450 C   0  0  0  0  0  0  0  0  0  0  0  0
    4.8330   -1.0550   27.4210 C   0  0  0  0  0  0  0  0  0  0  0  0
    4.6920    0.3380   28.0750 C   0  0  0  0  0  0  0  0  0  0  0  0
    3.9820    0.4400   29.2580 N   0  0  0  0  0  0  0  0  0  0  0  0
    3.4050   -0.5960   29.8790 C   0  0  0  0  0  0  0  0  0  0  0  0
    3.4850   -1.9920   29.3230 C   0  0  0  0  0  0  0  0  0  0  0  0
    7.1780   -2.9990   23.7840 C   0  0  0  0  0  0  0  0  0  0  0  0
    7.6330   -3.3090   22.3670 C   0  0  0  0  0  0  0  0  0  0  0  0
  1  2  1  0
  2  3  2  0
  2  4  1  0
  4  5  1  0
  5  6  1  0
  6  7  1  0
  7  8  1  0
  8  9  2  0
  8 10  1  0
 10 11  1  0
 11 12  1  0
 12 13  1  0
 13 14  1  0
 14 15  2  0
 15 16  1  0
 13 17  2  0
 16 17  1  0
 10 18  1  0
 17 18  1  0
 18 19  1  1
 19 20  2  0
 20 21  1  0
 21 22  2  0
 22 23  1  0
 19 24  1  0
 23 24  2  0
  7 25  1  0
  4 26  1  0
 25 26  1  0
M  END
