piperidine-amides-18816-covalent
     RDKit          3D

 21 21  0  0  0  0  0  0  0  0999 V2000
    7.1340   -3.3950   19.2650 C   0  0  0  0  0  0  0  0  0  0  0  0
    6.4150   -4.1060   20.2870 C   0  0  0  0  0  0  0  0  0  0  0  0
    5.3320   -4.6760   19.9480 O   0  0  0  0  0  0  0  0  0  0  0  0
    6.9260   -4.2330   21.5940 N   0  0  0  0  0  0  0  0  0  0  0  0
    6.6100   -5.4440   22.3730 C   0  0  0  0  0  0  0  0  0  0  0  0
    5.7730   -4.7950   23.5460 C   0  0  0  0  0  0  0  0  0  0  0  0
    6.5460   -3.6130   24.1280 C   0  0  0  0  0  0  0  0  0  0  0  0
    5.7470   -2.9610   25.3270 C   0  0  0  0  0  0  0  0  0  0  0  0
    5.0040   -2.0870   24.9150 O   0  0  0  0  0  0  0  0  0  0  0  0
    6.0810   -3.5220   26.4100 N   0  0  0  0  0  0  0  0  0  0  0  0
    6.3720   -4.4740   27.3280 C   0  0  0  0  0  0  0  0  0  0  0  0
    6.9820   -5.6890   27.2960 C   0  0  0  0  0  0  0  0  0  0  0  0
    7.7460   -5.9080   28.4480 C   0  0  0  0  0  0  0  0  0  0  0  0
    6.2160   -2.5030   27.4940 C   0  0  0  0  0  0  0  0  0  0  0  0
    4.8970   -2.4910   28.3020 C   0  0  0  0  0  0  0  0  0  0  0  0
    4.1060   -2.0240   27.2430 C   0  0  0  0  0  0  0  0  0  0  0  0
    2.7820   -1.6240   27.5220 N   0  0  0  0  0  0  0  0  0  0  0  0
    2.2780   -1.5080   28.8810 C   0  0  0  0  0  0  0  0  0  0  0  0
    1.9080   -1.5810   26.3740 C   0  0  0  0  0  0  0  0  0  0  0  0
    7.0120   -2.6230   23.1050 C   0  0  0  0  0  0  0  0  0  0  0  0
    7.7670   -3.2450   22.1760 C   0  0  0  0  0  0  0  0  0  0  0  0
  1  2  1  0
  2  3  2  0
  2  4  1  0
  4  5  1  0
  5  6  1  0
  6  7  1  0
  7  8  1  0
  8  9  2  0
  8 10  1  0
 10 11  1  0
 11 12  1  0
 12 13  1  0
 10 14  1  0
 14 15  1  0
 15 16  1  0
 16 17  1  0
 17 18  1  0
 17 19  1  0
  7 20  1  0
  4 21  1  0
 20 21  1  0
M  END
