piperidine-amides-35462-covalent
     RDKit          3D

 36 40  0  0  0  0  0  0  0  0999 V2000
    7.0510   -3.3110   19.2850 C   0  0  0  0  0  0  0  0  0  0  0  0
    6.3620   -4.1540   20.2970 C   0  0  0  0  0  0  0  0  0  0  0  0
    5.3410   -4.7420   19.9450 O   0  0  0  0  0  0  0  0  0  0  0  0
    6.9020   -4.2870   21.5750 N   0  0  0  0  0  0  0  0  0  0  0  0
    7.6150   -3.2020   22.2060 C   0  0  0  0  0  0  0  0  0  0  0  0
    6.8310   -2.7200   23.3880 C   0  0  0  0  0  0  0  0  0  0  0  0
    6.5630   -3.9150   24.2950 C   0  0  0  0  0  0  0  0  0  0  0  0
    5.8180   -3.4320   25.4820 C   0  0  0  0  0  0  0  0  0  0  0  0
    4.5880   -3.3020   25.3960 O   0  0  0  0  0  0  0  0  0  0  0  0
    6.4680   -3.1030   26.6980 N   0  0  0  0  0  0  0  0  0  0  0  0
    6.3380   -3.9540   27.8790 C   0  0  0  0  0  0  0  0  0  0  0  0
    6.0430   -5.4000   27.5170 C   0  0  0  0  0  0  0  0  0  0  0  0
    5.1140   -6.1130   28.2030 C   0  0  0  0  0  0  0  0  0  0  0  0
    5.3760   -6.8020   29.3430 C   0  0  0  0  0  0  0  0  0  0  0  0
    4.3570   -7.4590   29.9200 C   0  0  0  0  0  0  0  0  0  0  0  0
    2.9280   -7.5680   29.5070 C   0  0  0  0  0  0  0  0  0  0  0  0
    2.0230   -8.2910   30.2380 O   0  0  0  0  0  0  0  0  0  0  0  0
    1.1540   -9.1330   29.5400 C   0  0  0  0  0  0  0  0  0  0  0  0
    2.4800   -6.8630   28.2560 C   0  0  0  0  0  0  0  0  0  0  0  0
    3.6660   -6.1430   27.6560 C   0  0  0  0  0  0  0  0  0  0  0  0
    6.4530   -1.7490   27.2910 C   0  0  0  0  0  0  0  0  0  0  0  0
    6.8350   -1.4980   28.6480 N   0  0  0  0  0  0  0  0  0  0  0  0
    6.7680   -0.1410   29.1870 C   0  0  0  0  0  0  0  0  0  0  0  0
    7.0850    0.4290   30.4920 C   0  0  0  0  0  0  0  0  0  0  0  0
    6.8030    1.8710   30.4010 C   0  0  0  0  0  0  0  0  0  0  0  0
    6.9590    2.8120   31.3980 C   0  0  0  0  0  0  0  0  0  0  0  0
    6.3430    2.1270   29.1050 N   0  0  0  0  0  0  0  0  0  0  0  0
    6.3410    0.8990   28.4270 N   0  0  0  0  0  0  0  0  0  0  0  0
    5.9800    0.5060   27.0860 C   0  0  0  0  0  0  0  0  0  0  0  0
    6.4770   -1.0230   27.6990 C   0  0  0  0  0  0  0  0  0  0  0  0
    6.8810   -0.6670   29.1290 C   0  0  0  0  0  0  0  0  0  0  0  0
    6.6560    0.4960   29.1440 C   0  0  0  0  0  0  0  0  0  0  0  0
    6.1910    0.4860   27.7240 C   0  0  0  0  0  0  0  0  0  0  0  0
    6.0380   -0.6300   26.6180 C   0  0  0  0  0  0  0  0  0  0  0  0
    5.8590   -5.0270   23.6070 C   0  0  0  0  0  0  0  0  0  0  0  0
    6.5500   -5.4600   22.3410 C   0  0  0  0  0  0  0  0  0  0  0  0
  1  2  1  0
  2  3  2  0
  2  4  1  0
  4  5  1  0
  5  6  1  0
  6  7  1  0
  7  8  1  0
  8  9  2  0
  8 10  1  0
 10 11  1  0
 11 12  1  0
 12 13  1  0
 13 14  2  0
 14 15  1  0
 15 16  2  0
 16 17  1  0
 17 18  1  0
 16 19  1  0
 13 20  1  0
 19 20  2  0
 10 21  1  0
 21 22  2  0
 22 23  1  0
 23 24  2  0
 24 25  1  0
 25 26  1  0
 25 27  2  0
 23 28  1  0
 27 28  1  0
 28 29  1  0
 29 30  1  0
 30 31  2  0
 31 32  1  0
 32 33  2  0
 21 34  1  0
 29 34  2  0
 33 34  1  0
  7 35  1  0
  4 36  1  0
 35 36  1  0
M  END
