piperidine-amides-31509-covalent
     RDKit          3D

 28 31  0  0  0  0  0  0  0  0999 V2000
    7.1080   -3.3540   19.2360 C   0  0  0  0  0  0  0  0  0  0  0  0
    6.3800   -4.0860   20.2390 C   0  0  0  0  0  0  0  0  0  0  0  0
    5.2800   -4.6170   19.9090 O   0  0  0  0  0  0  0  0  0  0  0  0
    6.8830   -4.2870   21.5330 N   0  0  0  0  0  0  0  0  0  0  0  0
    6.6470   -5.6130   22.1370 C   0  0  0  0  0  0  0  0  0  0  0  0
    5.6690   -5.1530   23.2690 C   0  0  0  0  0  0  0  0  0  0  0  0
    6.5290   -4.2870   24.1410 C   0  0  0  0  0  0  0  0  0  0  0  0
    5.7000   -3.1650   24.8560 C   0  0  0  0  0  0  0  0  0  0  0  0
    5.7620   -2.1050   24.2730 O   0  0  0  0  0  0  0  0  0  0  0  0
    5.1620   -3.6570   25.8580 N   0  0  0  0  0  0  0  0  0  0  0  0
    4.1490   -4.2040   26.5340 C   0  0  0  0  0  0  0  0  0  0  0  0
    3.9170   -5.3090   27.2510 C   0  0  0  0  0  0  0  0  0  0  0  0
    3.1230   -6.4540   26.9680 C   0  0  0  0  0  0  0  0  0  0  0  0
    2.8630   -7.6900   27.7800 C   0  0  0  0  0  0  0  0  0  0  0  0
    3.6230   -7.6170   29.1300 C   0  0  0  0  0  0  0  0  0  0  0  0
    4.4480   -6.4900   29.4930 N   0  0  0  0  0  0  0  0  0  0  0  0
    4.5180   -5.4690   28.5440 C   0  0  0  0  0  0  0  0  0  0  0  0
    5.2480   -4.4270   28.7950 N   0  0  0  0  0  0  0  0  0  0  0  0
    4.7110   -3.1750   29.1860 C   0  0  0  0  0  0  0  0  0  0  0  0
    5.8380   -2.1670   29.1780 C   0  0  1  0  0  0  0  0  0  0  0  0
    6.0540   -1.5810   30.2560 O   0  0  0  0  0  0  0  0  0  0  0  0
    6.6740   -0.3640   29.9850 C   0  0  0  0  0  0  0  0  0  0  0  0
    7.8650   -0.4110   30.6600 C   0  0  0  0  0  0  0  0  0  0  0  0
    6.6850   -3.3950   28.9380 C   0  0  0  0  0  0  0  0  0  0  0  0
    6.2420   -4.1280   27.9370 C   0  0  2  0  0  0  0  0  0  0  0  0
    6.1080   -3.2380   26.8770 C   0  0  0  0  0  0  0  0  0  0  0  0
    7.7930   -3.7090   23.6150 C   0  0  0  0  0  0  0  0  0  0  0  0
    7.6770   -3.2760   22.1880 C   0  0  0  0  0  0  0  0  0  0  0  0
  1  2  1  0
  2  3  2  0
  2  4  1  0
  4  5  1  0
  5  6  1  0
  6  7  1  0
  7  8  1  0
  8  9  2  0
  8 10  1  0
 10 11  1  0
 11 12  1  0
 12 13  1  0
 13 14  2  0
 14 15  1  0
 15 16  2  0
 12 17  2  0
 16 17  1  0
 17 18  1  0
 18 19  1  0
 19 20  1  0
 20 21  1  1
 21 22  1  0
 22 23  1  0
 20 24  1  0
 18 25  1  0
 25 24  1  1
 10 26  1  0
 25 26  1  0
  7 27  1  0
  4 28  1  0
 27 28  1  0
M  END
