piperidine-amides-8771-covalent
     RDKit          3D

 23 24  0  0  0  0  0  0  0  0999 V2000
    6.9280   -3.2660   19.2570 C   0  0  0  0  0  0  0  0  0  0  0  0
    6.2710   -4.1040   20.2660 C   0  0  0  0  0  0  0  0  0  0  0  0
    5.2810   -4.7650   19.9340 O   0  0  0  0  0  0  0  0  0  0  0  0
    6.7720   -4.1860   21.5760 N   0  0  0  0  0  0  0  0  0  0  0  0
    7.5060   -3.0890   22.1060 C   0  0  0  0  0  0  0  0  0  0  0  0
    7.1660   -3.0140   23.5490 C   0  0  0  0  0  0  0  0  0  0  0  0
    5.6940   -3.2830   23.6610 C   0  0  0  0  0  0  0  0  0  0  0  0
    5.2340   -3.0900   25.0750 C   0  0  0  0  0  0  0  0  0  0  0  0
    4.1810   -3.6370   25.3870 O   0  0  0  0  0  0  0  0  0  0  0  0
    6.0010   -2.3050   25.9330 N   0  0  0  0  0  0  0  0  0  0  0  0
    6.8060   -2.8830   26.9430 C   0  0  0  0  0  0  0  0  0  0  0  0
    8.0390   -3.3000   26.4650 C   0  0  0  0  0  0  0  0  0  0  0  0
    8.6800   -2.6210   25.4480 C   0  0  0  0  0  0  0  0  0  0  0  0
    9.5400   -3.3920   24.7110 C   0  0  0  0  0  0  0  0  0  0  0  0
    9.8820   -4.5840   25.3330 N   0  0  0  0  0  0  0  0  0  0  0  0
    8.9590   -5.6960   25.2820 C   0  0  0  0  0  0  0  0  0  0  0  0
    7.8370   -5.4750   26.3110 C   0  0  0  0  0  0  0  0  0  0  0  0
    8.3500   -5.6220   27.6840 C   0  0  0  0  0  0  0  0  0  0  0  0
    9.6180   -4.8390   27.8570 C   0  0  0  0  0  0  0  0  0  0  0  0
   10.5040   -4.6380   26.5800 C   0  0  0  0  0  0  0  0  0  0  0  0
   11.7380   -4.4880   26.7590 O   0  0  0  0  0  0  0  0  0  0  0  0
    5.3620   -4.7220   23.2800 C   0  0  0  0  0  0  0  0  0  0  0  0
    6.3670   -5.2390   22.4770 C   0  0  0  0  0  0  0  0  0  0  0  0
  1  2  1  0
  2  3  2  0
  2  4  1  0
  4  5  1  0
  5  6  1  0
  6  7  1  0
  7  8  1  0
  8  9  2  0
  8 10  1  0
 10 11  1  0
 11 12  1  0
 12 13  1  0
 13 14  1  0
 14 15  1  0
 15 16  1  0
 16 17  1  0
 17 18  1  0
 18 19  1  0
 15 20  1  0
 19 20  1  0
 20 21  2  0
  7 22  1  0
  4 23  1  0
 22 23  1  0
M  END
