piperidine-amides-16122-covalent
     RDKit          3D

 19 20  0  0  0  0  0  0  0  0999 V2000
    7.0590   -3.3550   19.3380 C   0  0  0  0  0  0  0  0  0  0  0  0
    6.3160   -4.1870   20.3170 C   0  0  0  0  0  0  0  0  0  0  0  0
    5.2790   -4.7110   19.9300 O   0  0  0  0  0  0  0  0  0  0  0  0
    6.8290   -4.3870   21.5980 N   0  0  0  0  0  0  0  0  0  0  0  0
    6.6260   -5.6130   22.3340 C   0  0  0  0  0  0  0  0  0  0  0  0
    5.9490   -5.3420   23.6600 C   0  0  0  0  0  0  0  0  0  0  0  0
    6.0070   -3.8520   23.9810 C   0  0  0  0  0  0  0  0  0  0  0  0
    5.5180   -3.6210   25.3640 C   0  0  0  0  0  0  0  0  0  0  0  0
    4.3390   -3.2760   25.4900 O   0  0  0  0  0  0  0  0  0  0  0  0
    6.2900   -3.7500   26.5470 N   0  0  0  0  0  0  0  0  0  0  0  0
    7.0050   -5.0240   26.7230 C   0  0  0  0  0  0  0  0  0  0  0  0
    7.2860   -5.3760   28.1830 C   0  0  0  0  0  0  0  0  0  0  0  0
    6.6940   -4.4760   29.0210 O   0  0  0  0  0  0  0  0  0  0  0  0
    5.6120   -3.8060   28.6930 C   0  0  0  0  0  0  0  0  0  0  0  0
    5.8310   -2.9680   27.6600 C   0  0  1  0  0  0  0  0  0  0  0  0
    6.5300   -1.8160   27.9320 C   0  0  0  0  0  0  0  0  0  0  0  0
    7.1680   -1.4830   29.2700 C   0  0  0  0  0  0  0  0  0  0  0  0
    7.3390   -3.3190   23.6750 C   0  0  0  0  0  0  0  0  0  0  0  0
    7.5930   -3.3230   22.2110 C   0  0  0  0  0  0  0  0  0  0  0  0
  1  2  1  0
  2  3  2  0
  2  4  1  0
  4  5  1  0
  5  6  1  0
  6  7  1  0
  7  8  1  0
  8  9  2  0
  8 10  1  0
 10 11  1  0
 11 12  1  0
 12 13  1  0
 13 14  1  0
 10 15  1  0
 14 15  1  0
 15 16  1  1
 16 17  1  0
  7 18  1  0
  4 19  1  0
 18 19  1  0
M  END
