piperidine-amides-5332-covalent
     RDKit          3D

 21 22  0  0  0  0  0  0  0  0999 V2000
    7.1030   -3.2850   19.2580 C   0  0  0  0  0  0  0  0  0  0  0  0
    6.3870   -4.0800   20.2850 C   0  0  0  0  0  0  0  0  0  0  0  0
    5.3230   -4.6200   19.9160 O   0  0  0  0  0  0  0  0  0  0  0  0
    6.9040   -4.2640   21.5850 N   0  0  0  0  0  0  0  0  0  0  0  0
    6.5880   -5.4260   22.3250 C   0  0  0  0  0  0  0  0  0  0  0  0
    6.3260   -5.0980   23.7220 C   0  0  0  0  0  0  0  0  0  0  0  0
    5.8980   -3.6950   23.9390 C   0  0  0  0  0  0  0  0  0  0  0  0
    5.6800   -3.3870   25.3760 C   0  0  0  0  0  0  0  0  0  0  0  0
    4.5630   -2.9410   25.6980 O   0  0  0  0  0  0  0  0  0  0  0  0
    6.6720   -3.5740   26.3560 N   0  0  0  0  0  0  0  0  0  0  0  0
    6.8540   -4.8270   27.1430 C   0  0  0  0  0  0  0  0  0  0  0  0
    5.6480   -5.6890   27.1200 C   0  0  0  0  0  0  0  0  0  0  0  0
    5.1810   -6.3020   28.3610 C   0  0  0  0  0  0  0  0  0  0  0  0
    6.0150   -6.8290   29.3020 C   0  0  0  0  0  0  0  0  0  0  0  0
    5.6250   -7.4090   30.4710 C   0  0  0  0  0  0  0  0  0  0  0  0
    4.2030   -7.4190   30.6360 N   0  0  0  0  0  0  0  0  0  0  0  0
    3.3200   -6.9150   29.7430 C   0  0  0  0  0  0  0  0  0  0  0  0
    3.8290   -6.3500   28.5920 C   0  0  0  0  0  0  0  0  0  0  0  0
    2.8940   -5.8540   27.7270 C   0  0  0  0  0  0  0  0  0  0  0  0
    6.8100   -2.6670   23.2900 C   0  0  0  0  0  0  0  0  0  0  0  0
    7.7150   -3.2910   22.2920 C   0  0  0  0  0  0  0  0  0  0  0  0
  1  2  1  0
  2  3  2  0
  2  4  1  0
  4  5  1  0
  5  6  1  0
  6  7  1  0
  7  8  1  0
  8  9  2  0
  8 10  1  0
 10 11  1  0
 11 12  1  0
 12 13  1  0
 13 14  2  0
 14 15  1  0
 15 16  2  0
 16 17  1  0
 13 18  1  0
 17 18  2  0
 18 19  1  0
  7 20  1  0
  4 21  1  0
 20 21  1  0
M  END
