piperidine-amides-23347-covalent
     RDKit          3D

 23 25  0  0  0  0  0  0  0  0999 V2000
    7.1100   -3.3180   19.3060 C   0  0  0  0  0  0  0  0  0  0  0  0
    6.4060   -4.1240   20.3150 C   0  0  0  0  0  0  0  0  0  0  0  0
    5.3470   -4.6890   19.9430 O   0  0  0  0  0  0  0  0  0  0  0  0
    6.9280   -4.3040   21.6260 N   0  0  0  0  0  0  0  0  0  0  0  0
    7.6820   -3.2330   22.1950 C   0  0  0  0  0  0  0  0  0  0  0  0
    7.3240   -2.9760   23.5720 C   0  0  0  0  0  0  0  0  0  0  0  0
    6.0720   -3.6590   23.9310 C   0  0  0  0  0  0  0  0  0  0  0  0
    5.4570   -3.1410   25.1950 C   0  0  0  0  0  0  0  0  0  0  0  0
    4.3190   -2.6470   25.1310 O   0  0  0  0  0  0  0  0  0  0  0  0
    6.0740   -3.1890   26.4540 N   0  0  0  0  0  0  0  0  0  0  0  0
    6.2690   -2.0040   27.2330 C   0  0  0  0  0  0  0  0  0  0  0  0
    5.8490   -0.6700   26.7100 C   0  0  0  0  0  0  0  0  0  0  0  0
    5.9920    0.7370   27.4710 C   0  0  0  0  0  0  0  0  0  0  0  0
    6.5800    0.6740   28.7590 C   0  0  0  0  0  0  0  0  0  0  0  0
    6.8700   -0.7700   28.9450 C   0  0  0  0  0  0  0  0  0  0  0  0
    6.8110   -2.0330   28.4200 N   0  0  0  0  0  0  0  0  0  0  0  0
    5.9500   -4.4060   27.2310 C   0  0  0  0  0  0  0  0  0  0  0  0
    5.2300   -5.5450   26.8450 N   0  0  0  0  0  0  0  0  0  0  0  0
    5.2430   -6.6810   27.7870 C   0  0  0  0  0  0  0  0  0  0  0  0
    6.0480   -6.3000   28.9440 C   0  0  0  0  0  0  0  0  0  0  0  0
    6.6840   -4.6940   28.8070 S   0  0  0  0  0  0  0  0  0  0  0  0
    6.2230   -5.1590   23.8320 C   0  0  0  0  0  0  0  0  0  0  0  0
    6.5580   -5.4900   22.3590 C   0  0  0  0  0  0  0  0  0  0  0  0
  1  2  1  0
  2  3  2  0
  2  4  1  0
  4  5  1  0
  5  6  1  0
  6  7  1  0
  7  8  1  0
  8  9  2  0
  8 10  1  0
 10 11  1  0
 11 12  2  0
 12 13  1  0
 13 14  2  0
 14 15  1  0
 11 16  1  0
 15 16  2  0
 10 17  1  0
 17 18  2  0
 18 19  1  0
 19 20  2  0
 17 21  1  0
 20 21  1  0
  7 22  1  0
  4 23  1  0
 22 23  1  0
M  END
