piperidine-amides-32219-covalent
     RDKit          3D

 24 26  0  0  0  0  0  0  0  0999 V2000
    7.0650   -3.3700   19.4530 C   0  0  0  0  0  0  0  0  0  0  0  0
    6.3570   -4.2350   20.4330 C   0  0  0  0  0  0  0  0  0  0  0  0
    5.4120   -4.9320   20.0100 O   0  0  0  0  0  0  0  0  0  0  0  0
    6.7960   -4.2820   21.7850 N   0  0  0  0  0  0  0  0  0  0  0  0
    6.6310   -5.4980   22.5550 C   0  0  0  0  0  0  0  0  0  0  0  0
    6.2210   -5.1390   24.0020 C   0  0  0  0  0  0  0  0  0  0  0  0
    6.0820   -3.6540   24.1020 C   0  0  0  0  0  0  0  0  0  0  0  0
    5.1680   -3.1580   25.2120 C   0  0  0  0  0  0  0  0  0  0  0  0
    4.0390   -2.9290   24.7880 O   0  0  0  0  0  0  0  0  0  0  0  0
    5.4260   -2.9480   26.6010 N   0  0  0  0  0  0  0  0  0  0  0  0
    6.4680   -3.4060   27.3340 C   0  0  0  0  0  0  0  0  0  0  0  0
    6.4110   -4.6080   28.0730 C   0  0  0  0  0  0  0  0  0  0  0  0
    5.1860   -4.7190   28.9110 N   0  0  0  0  0  0  0  0  0  0  0  0
    5.0740   -5.5980   29.9760 C   0  0  0  0  0  0  0  0  0  0  0  0
    5.9790   -6.6230   29.9730 C   0  0  0  0  0  0  0  0  0  0  0  0
    5.9370   -7.6180   31.0680 C   0  0  0  0  0  0  0  0  0  0  0  0
    4.9170   -7.5420   32.2040 C   0  0  0  0  0  0  0  0  0  0  0  0
    3.9940   -6.3330   32.0310 C   0  0  0  0  0  0  0  0  0  0  0  0
    2.6220   -6.0050   33.3190 Br  0  0  0  0  0  0  0  0  0  0  0  0
    4.1270   -5.4670   30.9590 C   0  0  0  0  0  0  0  0  0  0  0  0
    4.3180   -4.4830   27.8330 C   0  0  0  0  0  0  0  0  0  0  0  0
    4.2190   -3.0750   27.3190 C   0  0  0  0  0  0  0  0  0  0  0  0
    7.4050   -3.0770   23.8610 C   0  0  0  0  0  0  0  0  0  0  0  0
    7.6230   -3.2120   22.3260 C   0  0  0  0  0  0  0  0  0  0  0  0
  1  2  1  0
  2  3  2  0
  2  4  1  0
  4  5  1  0
  5  6  1  0
  6  7  1  0
  7  8  1  0
  8  9  2  0
  8 10  1  0
 10 11  1  0
 11 12  1  0
 12 13  1  0
 13 14  1  0
 14 15  2  0
 15 16  1  0
 16 17  2  0
 17 18  1  0
 18 19  1  0
 14 20  1  0
 18 20  2  0
 13 21  1  0
 10 22  1  0
 21 22  1  0
  7 23  1  0
  4 24  1  0
 23 24  1  0
M  END
