piperidine-amides-14315-covalent
     RDKit          3D

 22 24  0  0  0  0  0  0  0  0999 V2000
    7.0840   -3.3070   19.2520 C   0  0  0  0  0  0  0  0  0  0  0  0
    6.3980   -4.1110   20.2590 C   0  0  0  0  0  0  0  0  0  0  0  0
    5.3420   -4.6830   19.9350 O   0  0  0  0  0  0  0  0  0  0  0  0
    6.9660   -4.2690   21.5460 N   0  0  0  0  0  0  0  0  0  0  0  0
    7.6290   -3.1250   22.1300 C   0  0  0  0  0  0  0  0  0  0  0  0
    7.5230   -3.1100   23.6350 C   0  0  0  0  0  0  0  0  0  0  0  0
    6.1410   -3.5980   24.0090 C   0  0  0  0  0  0  0  0  0  0  0  0
    5.7770   -3.2660   25.4190 C   0  0  0  0  0  0  0  0  0  0  0  0
    5.0080   -4.0410   25.9720 O   0  0  0  0  0  0  0  0  0  0  0  0
    6.2990   -2.1120   26.0000 N   0  0  0  0  0  0  0  0  0  0  0  0
    5.5790   -0.8770   25.9250 C   0  0  1  0  0  0  0  0  0  0  0  0
    4.1920   -0.9320   26.0280 C   0  0  0  0  0  0  0  0  0  0  0  0
    4.2350   -0.1310   27.0670 C   0  0  1  0  0  0  0  0  0  0  0  0
    3.8820   -0.4980   28.3620 C   0  0  0  0  0  0  0  0  0  0  0  0
    3.1530    0.3610   29.2060 N   0  0  0  0  0  0  0  0  0  0  0  0
    2.3860   -0.2080   30.3000 C   0  0  0  0  0  0  0  0  0  0  0  0
    1.7940    0.7670   30.9470 N   0  0  0  0  0  0  0  0  0  0  0  0
    2.1650    1.8890   30.3000 C   0  0  0  0  0  0  0  0  0  0  0  0
    3.0500    1.6900   29.1580 N   0  0  0  0  0  0  0  0  0  0  0  0
    5.7510   -0.0060   27.1150 C   0  0  0  0  0  0  0  0  0  0  0  0
    6.0440   -5.0410   23.6940 C   0  0  0  0  0  0  0  0  0  0  0  0
    6.5690   -5.4220   22.3090 C   0  0  0  0  0  0  0  0  0  0  0  0
  1  2  1  0
  2  3  2  0
  2  4  1  0
  4  5  1  0
  5  6  1  0
  6  7  1  0
  7  8  1  0
  8  9  2  0
  8 10  1  0
 11 10  1  1
 11 12  1  0
 12 13  1  0
 13 14  1  1
 14 15  1  0
 15 16  1  0
 16 17  2  0
 17 18  1  0
 15 19  1  0
 18 19  2  0
 11 20  1  0
 13 20  1  0
  7 21  1  0
  4 22  1  0
 21 22  1  0
M  END
