piperidine-amides-33732-covalent
     RDKit          3D

 30 33  0  0  0  0  0  0  0  0999 V2000
    7.0520   -3.3690   19.3710 C   0  0  0  0  0  0  0  0  0  0  0  0
    6.4180   -4.2500   20.3710 C   0  0  0  0  0  0  0  0  0  0  0  0
    5.4020   -4.8810   19.9920 O   0  0  0  0  0  0  0  0  0  0  0  0
    6.9610   -4.4140   21.6800 N   0  0  0  0  0  0  0  0  0  0  0  0
    6.4340   -5.4530   22.4810 C   0  0  0  0  0  0  0  0  0  0  0  0
    5.7620   -5.0000   23.7120 C   0  0  0  0  0  0  0  0  0  0  0  0
    6.2840   -3.7870   24.4180 C   0  0  0  0  0  0  0  0  0  0  0  0
    5.2720   -3.2730   25.4300 C   0  0  0  0  0  0  0  0  0  0  0  0
    4.3580   -2.5570   25.0020 O   0  0  0  0  0  0  0  0  0  0  0  0
    5.2910   -3.5580   26.8340 N   0  0  0  0  0  0  0  0  0  0  0  0
    4.8180   -2.7420   27.8890 C   0  0  0  0  0  0  0  0  0  0  0  0
    4.6880   -3.3030   29.2420 C   0  0  0  0  0  0  0  0  0  0  0  0
    4.9730   -4.5710   29.5540 N   0  0  0  0  0  0  0  0  0  0  0  0
    4.0860   -5.5630   30.1290 C   0  0  0  0  0  0  0  0  0  0  0  0
    3.4110   -5.0110   31.2090 C   0  0  0  0  0  0  0  0  0  0  0  0
    3.5700   -3.6740   31.5170 O   0  0  0  0  0  0  0  0  0  0  0  0
    2.6540   -5.9510   31.8070 N   0  0  0  0  0  0  0  0  0  0  0  0
    1.2530   -5.7100   32.1740 C   0  0  0  0  0  0  0  0  0  0  0  0
    0.5730   -7.0380   32.0190 C   0  0  0  0  0  0  0  0  0  0  0  0
    1.0720   -8.1200   32.7470 O   0  0  0  0  0  0  0  0  0  0  0  0
    2.4520   -8.0960   33.0130 C   0  0  0  0  0  0  0  0  0  0  0  0
    2.9380   -9.2760   33.8010 C   0  0  0  0  0  0  0  0  0  0  0  0
    4.4220   -9.3050   34.1190 C   0  0  0  0  0  0  0  0  0  0  0  0
    5.3180   -8.1530   33.6280 C   0  0  0  0  0  0  0  0  0  0  0  0
    4.6240   -7.0750   32.8580 C   0  0  0  0  0  0  0  0  0  0  0  0
    3.2560   -7.0550   32.5700 C   0  0  0  0  0  0  0  0  0  0  0  0
    5.7980   -5.2210   28.5450 C   0  0  0  0  0  0  0  0  0  0  0  0
    6.2120   -4.4940   27.3190 C   0  0  0  0  0  0  0  0  0  0  0  0
    6.7560   -2.7240   23.4600 C   0  0  0  0  0  0  0  0  0  0  0  0
    7.5740   -3.2920   22.3110 C   0  0  0  0  0  0  0  0  0  0  0  0
  1  2  1  0
  2  3  2  0
  2  4  1  0
  4  5  1  0
  5  6  1  0
  6  7  1  0
  7  8  1  0
  8  9  2  0
  8 10  1  0
 10 11  1  0
 11 12  1  0
 12 13  1  0
 13 14  1  0
 14 15  1  0
 15 16  2  0
 15 17  1  0
 17 18  1  0
 18 19  1  0
 19 20  1  0
 20 21  1  0
 21 22  2  0
 22 23  1  0
 23 24  2  0
 24 25  1  0
 17 26  1  0
 21 26  1  0
 25 26  2  0
 13 27  1  0
 10 28  1  0
 27 28  1  0
  7 29  1  0
  4 30  1  0
 29 30  1  0
M  END
