piperidine-amides-2796-covalent
     RDKit          3D

 24 25  0  0  0  0  0  0  0  0999 V2000
    7.0720   -3.3220   19.3110 C   0  0  0  0  0  0  0  0  0  0  0  0
    6.3760   -4.1510   20.2860 C   0  0  0  0  0  0  0  0  0  0  0  0
    5.3640   -4.7730   19.9610 O   0  0  0  0  0  0  0  0  0  0  0  0
    6.9010   -4.2850   21.6150 N   0  0  0  0  0  0  0  0  0  0  0  0
    7.7130   -3.2320   22.1730 C   0  0  0  0  0  0  0  0  0  0  0  0
    7.0530   -2.6760   23.3970 C   0  0  0  0  0  0  0  0  0  0  0  0
    6.5280   -3.8470   24.2070 C   0  0  0  0  0  0  0  0  0  0  0  0
    5.7830   -3.3030   25.3770 C   0  0  0  0  0  0  0  0  0  0  0  0
    4.5460   -3.1400   25.3710 O   0  0  0  0  0  0  0  0  0  0  0  0
    6.5120   -2.9580   26.5360 N   0  0  0  0  0  0  0  0  0  0  0  0
    6.4010   -1.6250   27.0820 C   0  0  0  0  0  0  0  0  0  0  0  0
    6.9790   -1.5530   28.4650 C   0  0  0  0  0  0  0  0  0  0  0  0
    6.9640   -0.3700   29.1700 C   0  0  0  0  0  0  0  0  0  0  0  0
    6.4010    0.7740   28.5700 C   0  0  0  0  0  0  0  0  0  0  0  0
    6.3470    1.9960   29.2100 C   0  0  1  0  0  0  0  0  0  0  0  0
    6.7250    2.9450   28.4950 O   0  0  0  0  0  0  0  0  0  0  0  0
    5.0010    2.3900   29.6140 C   0  0  0  0  0  0  0  0  0  0  0  0
    4.5920    3.6970   29.7270 O   0  0  0  0  0  0  0  0  0  0  0  0
    4.2380    1.3540   29.8480 O   0  0  0  0  0  0  0  0  0  0  0  0
    3.2510    0.8660   28.9710 C   0  0  0  0  0  0  0  0  0  0  0  0
    5.8850    0.6720   27.2980 C   0  0  0  0  0  0  0  0  0  0  0  0
    5.8730   -0.5000   26.5510 C   0  0  0  0  0  0  0  0  0  0  0  0
    5.7600   -4.8520   23.4820 C   0  0  0  0  0  0  0  0  0  0  0  0
    6.5450   -5.3820   22.4700 C   0  0  0  0  0  0  0  0  0  0  0  0
  1  2  1  0
  2  3  2  0
  2  4  1  0
  4  5  1  0
  5  6  1  0
  6  7  1  0
  7  8  1  0
  8  9  2  0
  8 10  1  0
 10 11  1  0
 11 12  2  0
 12 13  1  0
 13 14  2  0
 14 15  1  0
 15 16  1  6
 15 17  1  0
 17 18  2  0
 17 19  1  0
 19 20  1  0
 14 21  1  0
 11 22  1  0
 21 22  2  0
  7 23  1  0
  4 24  1  0
 23 24  1  0
M  END
