piperidine-amides-30878-covalent
     RDKit          3D

 28 31  0  0  0  0  0  0  0  0999 V2000
    7.0620   -3.3720   19.4000 C   0  0  0  0  0  0  0  0  0  0  0  0
    6.3920   -4.2510   20.3620 C   0  0  0  0  0  0  0  0  0  0  0  0
    5.3770   -4.8670   19.9900 O   0  0  0  0  0  0  0  0  0  0  0  0
    6.8900   -4.4660   21.6660 N   0  0  0  0  0  0  0  0  0  0  0  0
    6.6140   -5.6730   22.4100 C   0  0  0  0  0  0  0  0  0  0  0  0
    6.4210   -5.2310   23.8440 C   0  0  0  0  0  0  0  0  0  0  0  0
    5.8520   -3.8470   23.9220 C   0  0  0  0  0  0  0  0  0  0  0  0
    5.2530   -3.4740   25.2350 C   0  0  0  0  0  0  0  0  0  0  0  0
    4.4320   -2.5160   25.2730 O   0  0  0  0  0  0  0  0  0  0  0  0
    5.5080   -4.0840   26.4850 N   0  0  0  0  0  0  0  0  0  0  0  0
    6.8990   -4.3420   26.7530 C   0  0  0  0  0  0  0  0  0  0  0  0
    7.0830   -5.3910   27.7860 C   0  0  0  0  0  0  0  0  0  0  0  0
    6.2870   -5.1090   28.9680 C   0  0  0  0  0  0  0  0  0  0  0  0
    4.9100   -4.7470   28.5080 C   0  0  1  0  0  0  0  0  0  0  0  0
    3.9720   -4.6940   29.6910 C   0  0  0  0  0  0  0  0  0  0  0  0
    3.1340   -5.8630   29.9810 N   0  0  0  0  0  0  0  0  0  0  0  0
    2.4360   -5.3580   31.1450 C   0  0  0  0  0  0  0  0  0  0  0  0
    1.5080   -6.1310   31.7920 C   0  0  0  0  0  0  0  0  0  0  0  0
    0.7180   -5.6190   32.9010 C   0  0  0  0  0  0  0  0  0  0  0  0
   -0.3490   -6.4140   33.6880 C   0  0  0  0  0  0  0  0  0  0  0  0
   -0.5160   -7.8250   33.2010 C   0  0  0  0  0  0  0  0  0  0  0  0
    0.4280   -7.9650   32.1010 C   0  0  0  0  0  0  0  0  0  0  0  0
    1.2500   -7.4680   31.4390 C   0  0  0  0  0  0  0  0  0  0  0  0
    2.8370   -4.1230   31.4270 N   0  0  0  0  0  0  0  0  0  0  0  0
    3.7450   -3.7170   30.5730 N   0  0  0  0  0  0  0  0  0  0  0  0
    4.8840   -3.6460   27.6890 C   0  0  0  0  0  0  0  0  0  0  0  0
    6.7840   -2.7760   23.3910 C   0  0  0  0  0  0  0  0  0  0  0  0
    7.6480   -3.4400   22.3270 C   0  0  0  0  0  0  0  0  0  0  0  0
  1  2  1  0
  2  3  2  0
  2  4  1  0
  4  5  1  0
  5  6  1  0
  6  7  1  0
  7  8  1  0
  8  9  2  0
  8 10  1  0
 10 11  1  0
 11 12  1  0
 12 13  1  0
 13 14  1  0
 14 15  1  1
 15 16  2  0
 16 17  1  0
 17 18  1  0
 18 19  2  0
 19 20  1  0
 20 21  2  0
 21 22  1  0
 18 23  1  0
 22 23  2  0
 17 24  2  0
 15 25  1  0
 24 25  1  0
 10 26  1  0
 14 26  1  0
  7 27  1  0
  4 28  1  0
 27 28  1  0
M  END
