piperidine-amides-30422-covalent
     RDKit          3D

 26 28  0  0  0  0  0  0  0  0999 V2000
    7.0590   -3.3760   19.3620 C   0  0  0  0  0  0  0  0  0  0  0  0
    6.4130   -4.2330   20.3580 C   0  0  0  0  0  0  0  0  0  0  0  0
    5.4280   -4.9080   20.0050 O   0  0  0  0  0  0  0  0  0  0  0  0
    6.9120   -4.3310   21.6740 N   0  0  0  0  0  0  0  0  0  0  0  0
    6.6490   -5.4550   22.5390 C   0  0  0  0  0  0  0  0  0  0  0  0
    6.0880   -4.9060   23.8490 C   0  0  0  0  0  0  0  0  0  0  0  0
    6.7350   -3.6300   24.3860 C   0  0  0  0  0  0  0  0  0  0  0  0
    6.0250   -2.9910   25.5550 C   0  0  0  0  0  0  0  0  0  0  0  0
    5.9270   -1.7430   25.5920 O   0  0  0  0  0  0  0  0  0  0  0  0
    5.3950   -3.6680   26.6340 N   0  0  0  0  0  0  0  0  0  0  0  0
    6.0600   -4.9370   26.9510 C   0  0  0  0  0  0  0  0  0  0  0  0
    6.4900   -6.1630   27.6870 C   0  0  0  0  0  0  0  0  0  0  0  0
    6.2400   -6.7660   28.9840 C   0  0  0  0  0  0  0  0  0  0  0  0
    5.3860   -6.1940   29.9690 C   0  0  0  0  0  0  0  0  0  0  0  0
    5.1350   -7.0560   31.5110 Cl  0  0  0  0  0  0  0  0  0  0  0  0
    4.8560   -4.9140   29.4910 C   0  0  0  0  0  0  0  0  0  0  0  0
    5.2440   -4.4630   28.1330 C   0  0  0  0  0  0  0  0  0  0  0  0
    4.6410   -3.2280   28.0040 N   0  0  0  0  0  0  0  0  0  0  0  0
    3.4200   -3.4750   27.7870 C   0  0  0  0  0  0  0  0  0  0  0  0
    2.4020   -3.8350   27.1100 O   0  0  0  0  0  0  0  0  0  0  0  0
    3.9390   -3.7840   26.5290 C   0  0  1  0  0  0  0  0  0  0  0  0
    3.3630   -2.9730   25.3720 C   0  0  0  0  0  0  0  0  0  0  0  0
    3.7190   -3.4320   23.9520 C   0  0  0  0  0  0  0  0  0  0  0  0
    3.5700   -1.4590   25.4310 C   0  0  0  0  0  0  0  0  0  0  0  0
    6.9160   -2.6240   23.3050 C   0  0  0  0  0  0  0  0  0  0  0  0
    7.6260   -3.2030   22.1610 C   0  0  0  0  0  0  0  0  0  0  0  0
  1  2  1  0
  2  3  2  0
  2  4  1  0
  4  5  1  0
  5  6  1  0
  6  7  1  0
  7  8  1  0
  8  9  2  0
  8 10  1  0
 10 11  1  0
 11 12  2  0
 12 13  1  0
 13 14  2  0
 14 15  1  0
 14 16  1  0
 11 17  1  0
 16 17  2  0
 17 18  1  0
 18 19  1  0
 19 20  2  0
 10 21  1  0
 19 21  1  0
 21 22  1  6
 22 23  1  0
 22 24  1  0
  7 25  1  0
  4 26  1  0
 25 26  1  0
M  END
