piperidine-amides-31404-covalent
     RDKit          3D

 27 28  0  0  0  0  0  0  0  0999 V2000
    7.1090   -3.3670   19.4960 C   0  0  0  0  0  0  0  0  0  0  0  0
    6.4400   -4.2370   20.4360 C   0  0  0  0  0  0  0  0  0  0  0  0
    5.4520   -4.9240   20.0100 O   0  0  0  0  0  0  0  0  0  0  0  0
    6.8720   -4.3750   21.7820 N   0  0  0  0  0  0  0  0  0  0  0  0
    7.6700   -3.2980   22.3970 C   0  0  0  0  0  0  0  0  0  0  0  0
    6.5800   -2.6710   23.3510 C   0  0  0  0  0  0  0  0  0  0  0  0
    6.1200   -3.7470   24.3300 C   0  0  0  0  0  0  0  0  0  0  0  0
    4.9640   -3.1650   25.3140 C   0  0  0  0  0  0  0  0  0  0  0  0
    3.9750   -2.9350   24.6480 O   0  0  0  0  0  0  0  0  0  0  0  0
    5.3280   -3.0750   26.5470 N   0  0  0  0  0  0  0  0  0  0  0  0
    5.5420   -2.5750   27.8110 C   0  0  0  0  0  0  0  0  0  0  0  0
    5.1290   -2.7720   29.1120 C   0  0  0  0  0  0  0  0  0  0  0  0
    4.7530   -4.1610   29.2860 N   0  0  0  0  0  0  0  0  0  0  0  0
    4.0970   -4.6780   30.3310 C   0  0  0  0  0  0  0  0  0  0  0  0
    2.8610   -4.2660   30.8540 O   0  0  0  0  0  0  0  0  0  0  0  0
    4.8000   -5.7350   30.8910 O   0  0  0  0  0  0  0  0  0  0  0  0
    4.3070   -6.5600   31.8760 C   0  0  0  0  0  0  0  0  0  0  0  0
    3.7130   -7.9290   31.5330 C   0  0  0  0  0  0  0  0  0  0  0  0
    5.2070   -7.7370   32.2900 C   0  0  0  0  0  0  0  0  0  0  0  0
    3.5680   -5.8720   32.9920 C   0  0  0  0  0  0  0  0  0  0  0  0
    5.8860   -4.9990   29.0510 C   0  0  0  0  0  0  0  0  0  0  0  0
    5.7450   -5.3370   27.5640 C   0  0  2  0  0  0  0  0  0  0  0  0
    4.5140   -5.8040   27.1840 C   0  0  0  0  0  0  0  0  0  0  0  0
    6.5860   -6.4050   27.3030 F   0  0  0  0  0  0  0  0  0  0  0  0
    6.1380   -4.2220   26.6800 C   0  0  0  0  0  0  0  0  0  0  0  0
    5.7420   -5.1070   23.7010 C   0  0  0  0  0  0  0  0  0  0  0  0
    6.5150   -5.4840   22.6150 C   0  0  0  0  0  0  0  0  0  0  0  0
  1  2  1  0
  2  3  2  0
  2  4  1  0
  4  5  1  0
  5  6  1  0
  6  7  1  0
  7  8  1  0
  8  9  2  0
  8 10  1  0
 10 11  1  0
 11 12  1  0
 12 13  1  0
 13 14  1  0
 14 15  2  0
 14 16  1  0
 17 16  1  0
 17 18  1  0
 17 19  1  0
 17 20  1  0
 13 21  1  0
 21 22  1  0
 22 23  1  1
 22 24  1  0
 10 25  1  0
 22 25  1  0
  7 26  1  0
  4 27  1  0
 26 27  1  0
M  END
