piperidine-amides-25259-covalent
     RDKit          3D

 24 24  0  0  0  0  0  0  0  0999 V2000
    7.0550   -3.2930   19.2650 C   0  0  0  0  0  0  0  0  0  0  0  0
    6.3600   -4.0940   20.3100 C   0  0  0  0  0  0  0  0  0  0  0  0
    5.3560   -4.7070   19.9460 O   0  0  0  0  0  0  0  0  0  0  0  0
    6.8560   -4.1800   21.6230 N   0  0  0  0  0  0  0  0  0  0  0  0
    6.6820   -5.4030   22.3770 C   0  0  0  0  0  0  0  0  0  0  0  0
    6.2810   -5.0900   23.7950 C   0  0  0  0  0  0  0  0  0  0  0  0
    6.2230   -3.5790   23.9710 C   0  0  0  0  0  0  0  0  0  0  0  0
    5.6380   -3.2230   25.2890 C   0  0  0  0  0  0  0  0  0  0  0  0
    4.4490   -2.8990   25.3120 O   0  0  0  0  0  0  0  0  0  0  0  0
    6.3370   -3.2060   26.5180 N   0  0  0  0  0  0  0  0  0  0  0  0
    6.7190   -1.8580   26.8830 C   0  0  0  0  0  0  0  0  0  0  0  0
    5.7890   -4.0380   27.5610 C   0  0  2  0  0  0  0  0  0  0  0  0
    6.6350   -4.7460   28.3780 C   0  0  0  0  0  0  0  0  0  0  0  0
    5.9040   -5.4620   27.3950 C   0  0  0  0  0  0  0  0  0  0  0  0
    4.6780   -6.1460   27.7570 N   0  0  0  0  0  0  0  0  0  0  0  0
    3.4370   -5.8100   27.0970 C   0  0  0  0  0  0  0  0  0  0  0  0
    2.3920   -5.2780   27.7890 O   0  0  0  0  0  0  0  0  0  0  0  0
    3.2270   -6.0060   25.7490 O   0  0  0  0  0  0  0  0  0  0  0  0
    2.7870   -4.9960   24.8670 C   0  0  0  0  0  0  0  0  0  0  0  0
    3.2000   -5.0300   23.4280 C   0  0  0  0  0  0  0  0  0  0  0  0
    1.8460   -5.6160   23.8590 C   0  0  0  0  0  0  0  0  0  0  0  0
    2.2330   -3.6880   25.3400 C   0  0  0  0  0  0  0  0  0  0  0  0
    7.5260   -2.9340   23.6330 C   0  0  0  0  0  0  0  0  0  0  0  0
    7.7240   -3.1210   22.1390 C   0  0  0  0  0  0  0  0  0  0  0  0
  1  2  1  0
  2  3  2  0
  2  4  1  0
  4  5  1  0
  5  6  1  0
  6  7  1  0
  7  8  1  0
  8  9  2  0
  8 10  1  0
 10 11  1  0
 10 12  1  0
 12 13  1  1
 12 14  1  0
 14 15  1  0
 15 16  1  0
 16 17  2  0
 16 18  1  0
 19 18  1  0
 19 20  1  0
 19 21  1  0
 19 22  1  0
  7 23  1  0
  4 24  1  0
 23 24  1  0
M  END
