piperidine-amides-14653-covalent
     RDKit          3D

 22 23  0  0  0  0  0  0  0  0999 V2000
    7.0120   -3.3370   19.3580 C   0  0  0  0  0  0  0  0  0  0  0  0
    6.3680   -4.1850   20.3620 C   0  0  0  0  0  0  0  0  0  0  0  0
    5.4130   -4.8900   19.9910 O   0  0  0  0  0  0  0  0  0  0  0  0
    6.8460   -4.2260   21.7080 N   0  0  0  0  0  0  0  0  0  0  0  0
    7.7300   -3.1830   22.1850 C   0  0  0  0  0  0  0  0  0  0  0  0
    7.5160   -2.9300   23.6500 C   0  0  0  0  0  0  0  0  0  0  0  0
    6.1810   -3.5480   23.9440 C   0  0  0  0  0  0  0  0  0  0  0  0
    5.7020   -3.2480   25.3380 C   0  0  0  0  0  0  0  0  0  0  0  0
    4.5360   -3.5630   25.5590 O   0  0  0  0  0  0  0  0  0  0  0  0
    6.5500   -2.6330   26.2680 N   0  0  0  0  0  0  0  0  0  0  0  0
    6.0230   -1.7270   27.2520 C   0  0  0  0  0  0  0  0  0  0  0  0
    4.9120   -2.1550   27.9990 C   0  0  0  0  0  0  0  0  0  0  0  0
    5.0180   -3.4080   28.5780 C   0  0  0  0  0  0  0  0  0  0  0  0
    3.9150   -4.3050   28.7130 N   0  0  0  0  0  0  0  0  0  0  0  0
    6.2260   -3.8510   29.0760 O   0  0  0  0  0  0  0  0  0  0  0  0
    5.7100   -0.4500   26.5320 C   0  0  0  0  0  0  0  0  0  0  0  0
    5.8730    0.8040   27.3380 C   0  0  0  0  0  0  0  0  0  0  0  0
    6.0030    0.6590   28.8700 C   0  0  0  0  0  0  0  0  0  0  0  0
    6.8440   -0.4540   29.3750 C   0  0  0  0  0  0  0  0  0  0  0  0
    7.1250   -1.4060   28.2530 C   0  0  0  0  0  0  0  0  0  0  0  0
    6.0950   -5.0000   23.7220 C   0  0  0  0  0  0  0  0  0  0  0  0
    6.6700   -5.4030   22.5320 C   0  0  0  0  0  0  0  0  0  0  0  0
  1  2  1  0
  2  3  2  0
  2  4  1  0
  4  5  1  0
  5  6  1  0
  6  7  1  0
  7  8  1  0
  8  9  2  0
  8 10  1  0
 11 10  1  0
 11 12  1  0
 12 13  1  0
 13 14  1  0
 13 15  2  0
 11 16  1  0
 16 17  1  0
 17 18  1  0
 18 19  1  0
 11 20  1  0
 19 20  1  0
  7 21  1  0
  4 22  1  0
 21 22  1  0
M  END
