piperidine-amides-32553-covalent
     RDKit          3D

 28 29  0  0  0  0  0  0  0  0999 V2000
    6.9730   -3.3640   19.4300 C   0  0  0  0  0  0  0  0  0  0  0  0
    6.3300   -4.2780   20.4230 C   0  0  0  0  0  0  0  0  0  0  0  0
    5.4020   -4.9960   20.0120 O   0  0  0  0  0  0  0  0  0  0  0  0
    6.7880   -4.3430   21.7740 N   0  0  0  0  0  0  0  0  0  0  0  0
    6.6160   -5.5520   22.5620 C   0  0  0  0  0  0  0  0  0  0  0  0
    6.0760   -5.2140   23.9830 C   0  0  0  0  0  0  0  0  0  0  0  0
    6.0080   -3.7300   24.1260 C   0  0  0  0  0  0  0  0  0  0  0  0
    5.2780   -3.1410   25.3260 C   0  0  0  0  0  0  0  0  0  0  0  0
    4.6850   -2.1060   25.0500 O   0  0  0  0  0  0  0  0  0  0  0  0
    5.2050   -3.6500   26.6580 N   0  0  0  0  0  0  0  0  0  0  0  0
    4.9410   -2.8730   27.8070 C   0  0  0  0  0  0  0  0  0  0  0  0
    5.8090   -2.8700   28.8820 C   0  0  0  0  0  0  0  0  0  0  0  0
    5.9670   -4.2420   29.3310 O   0  0  0  0  0  0  0  0  0  0  0  0
    5.9440   -5.2250   28.3570 C   0  0  1  0  0  0  0  0  0  0  0  0
    4.8510   -6.0520   28.3980 C   0  0  0  0  0  0  0  0  0  0  0  0
    4.4820   -6.4760   29.6330 N   0  0  0  0  0  0  0  0  0  0  0  0
    5.1890   -7.4320   30.2590 C   0  0  0  0  0  0  0  0  0  0  0  0
    3.7440   -5.5210   30.4260 C   0  0  0  0  0  0  0  0  0  0  0  0
    2.2230   -5.7090   30.5030 C   0  0  0  0  0  0  0  0  0  0  0  0
    1.4080   -4.7600   29.9090 O   0  0  0  0  0  0  0  0  0  0  0  0
    1.5740   -6.7330   31.1100 O   0  0  0  0  0  0  0  0  0  0  0  0
    1.6470   -8.0690   31.0060 C   0  0  0  0  0  0  0  0  0  0  0  0
    2.2300   -8.4340   29.6910 C   0  0  0  0  0  0  0  0  0  0  0  0
    1.9250   -8.9170   32.0840 C   0  0  0  0  0  0  0  0  0  0  0  0
    0.3130   -8.5200   30.4030 C   0  0  0  0  0  0  0  0  0  0  0  0
    6.1430   -4.5780   27.1130 C   0  0  0  0  0  0  0  0  0  0  0  0
    7.3100   -3.0740   23.8180 C   0  0  0  0  0  0  0  0  0  0  0  0
    7.6310   -3.2900   22.3330 C   0  0  0  0  0  0  0  0  0  0  0  0
  1  2  1  0
  2  3  2  0
  2  4  1  0
  4  5  1  0
  5  6  1  0
  6  7  1  0
  7  8  1  0
  8  9  2  0
  8 10  1  0
 10 11  1  0
 11 12  1  0
 12 13  1  0
 13 14  1  0
 14 15  1  6
 15 16  1  0
 16 17  1  0
 16 18  1  0
 18 19  1  0
 19 20  2  0
 19 21  1  0
 22 21  1  0
 22 23  1  0
 22 24  1  0
 22 25  1  0
 10 26  1  0
 14 26  1  0
  7 27  1  0
  4 28  1  0
 27 28  1  0
M  END
