piperidine-amides-3142-covalent
     RDKit          3D

 23 25  0  0  0  0  0  0  0  0999 V2000
    7.0960   -3.2810   19.1970 C   0  0  0  0  0  0  0  0  0  0  0  0
    6.3160   -3.9930   20.2020 C   0  0  0  0  0  0  0  0  0  0  0  0
    5.2660   -4.5460   19.8840 O   0  0  0  0  0  0  0  0  0  0  0  0
    6.8020   -4.1020   21.5460 N   0  0  0  0  0  0  0  0  0  0  0  0
    7.6820   -3.1070   22.0800 C   0  0  0  0  0  0  0  0  0  0  0  0
    7.2210   -2.6650   23.4400 C   0  0  0  0  0  0  0  0  0  0  0  0
    6.3780   -3.7360   24.1480 C   0  0  0  0  0  0  0  0  0  0  0  0
    5.1530   -3.0670   24.6620 C   0  0  0  0  0  0  0  0  0  0  0  0
    4.0950   -3.0450   24.0150 O   0  0  0  0  0  0  0  0  0  0  0  0
    5.1360   -2.4470   25.9240 N   0  0  0  0  0  0  0  0  0  0  0  0
    4.0570   -2.8690   26.7850 C   0  0  0  0  0  0  0  0  0  0  0  0
    4.2550   -4.3400   26.9240 C   0  0  0  0  0  0  0  0  0  0  0  0
    5.5460   -4.5590   26.9740 C   0  0  0  0  0  0  0  0  0  0  0  0
    6.2700   -3.4790   27.3680 C   0  0  0  0  0  0  0  0  0  0  0  0
    7.5430   -3.9000   27.3420 N   0  0  0  0  0  0  0  0  0  0  0  0
    7.6440   -5.2310   26.9500 C   0  0  0  0  0  0  0  0  0  0  0  0
    6.2710   -5.6260   26.7080 N   0  0  0  0  0  0  0  0  0  0  0  0
    8.9450   -5.7700   26.9180 C   0  0  0  0  0  0  0  0  0  0  0  0
    9.7720   -5.1590   27.8020 C   0  0  0  0  0  0  0  0  0  0  0  0
    9.2030   -4.0860   28.4350 C   0  0  0  0  0  0  0  0  0  0  0  0
    8.5810   -3.1560   27.6640 C   0  0  0  0  0  0  0  0  0  0  0  0
    5.9630   -4.9650   23.4530 C   0  0  0  0  0  0  0  0  0  0  0  0
    6.6660   -5.2950   22.3120 C   0  0  0  0  0  0  0  0  0  0  0  0
  1  2  1  0
  2  3  2  0
  2  4  1  0
  4  5  1  0
  5  6  1  0
  6  7  1  0
  7  8  1  0
  8  9  2  0
  8 10  1  0
 10 11  1  0
 11 12  1  0
 12 13  1  0
 13 14  2  0
 14 15  1  0
 15 16  1  0
 13 17  1  0
 16 17  2  0
 16 18  1  0
 18 19  1  0
 19 20  1  0
 15 21  1  0
 20 21  1  0
  7 22  1  0
  4 23  1  0
 22 23  1  0
M  END
