piperidine-amides-29220-covalent
     RDKit          3D

 26 28  0  0  0  0  0  0  0  0999 V2000
    7.0290   -3.3100   19.3160 C   0  0  0  0  0  0  0  0  0  0  0  0
    6.3370   -4.1170   20.3220 C   0  0  0  0  0  0  0  0  0  0  0  0
    5.3500   -4.7780   19.9590 O   0  0  0  0  0  0  0  0  0  0  0  0
    6.8020   -4.1770   21.6640 N   0  0  0  0  0  0  0  0  0  0  0  0
    7.6180   -3.1020   22.1690 C   0  0  0  0  0  0  0  0  0  0  0  0
    7.3180   -2.8000   23.6190 C   0  0  0  0  0  0  0  0  0  0  0  0
    5.9330   -3.3310   23.9340 C   0  0  0  0  0  0  0  0  0  0  0  0
    5.4080   -2.9360   25.3070 C   0  0  0  0  0  0  0  0  0  0  0  0
    4.2180   -2.6330   25.3030 O   0  0  0  0  0  0  0  0  0  0  0  0
    6.1940   -2.9280   26.4840 N   0  0  0  0  0  0  0  0  0  0  0  0
    6.1520   -4.1220   27.2680 C   0  0  0  0  0  0  0  0  0  0  0  0
    7.1630   -4.2950   28.2120 C   0  0  0  0  0  0  0  0  0  0  0  0
    8.2790   -4.5950   27.3470 N   0  0  0  0  0  0  0  0  0  0  0  0
    8.4160   -4.2290   25.9820 C   0  0  0  0  0  0  0  0  0  0  0  0
    7.9890   -5.1330   25.0430 C   0  0  0  0  0  0  0  0  0  0  0  0
    8.7290   -6.2730   25.1620 O   0  0  0  0  0  0  0  0  0  0  0  0
    9.4350   -6.2890   26.3190 C   0  0  0  0  0  0  0  0  0  0  0  0
    8.8770   -5.7290   27.6090 C   0  0  0  0  0  0  0  0  0  0  0  0
    6.2880   -1.7190   27.3070 C   0  0  0  0  0  0  0  0  0  0  0  0
    6.0610   -0.4660   26.4990 C   0  0  0  0  0  0  0  0  0  0  0  0
    6.1140    0.7410   27.4860 C   0  0  0  0  0  0  0  0  0  0  0  0
    6.8490    0.5100   28.6290 O   0  0  0  0  0  0  0  0  0  0  0  0
    7.1710   -0.7430   29.1170 C   0  0  0  0  0  0  0  0  0  0  0  0
    7.4250   -1.6590   28.1220 C   0  0  0  0  0  0  0  0  0  0  0  0
    5.7510   -4.8070   23.7120 C   0  0  0  0  0  0  0  0  0  0  0  0
    6.4790   -5.3030   22.4880 C   0  0  0  0  0  0  0  0  0  0  0  0
  1  2  1  0
  2  3  2  0
  2  4  1  0
  4  5  1  0
  5  6  1  0
  6  7  1  0
  7  8  1  0
  8  9  2  0
  8 10  1  0
 10 11  1  0
 11 12  1  0
 12 13  1  0
 13 14  1  0
 14 15  1  0
 15 16  1  0
 16 17  1  0
 13 18  1  0
 17 18  1  0
 10 19  1  0
 19 20  1  0
 20 21  1  0
 21 22  1  0
 22 23  1  0
 19 24  1  0
 23 24  1  0
  7 25  1  0
  4 26  1  0
 25 26  1  0
M  END
