piperidine-amides-27411-covalent
     RDKit          3D

 26 28  0  0  0  0  0  0  0  0999 V2000
    7.2220   -4.0170   19.6550 C   0  0  0  0  0  0  0  0  0  0  0  0
    6.0870   -4.0520   20.4370 C   0  0  0  0  0  0  0  0  0  0  0  0
    5.0420   -4.2080   19.7580 O   0  0  0  0  0  0  0  0  0  0  0  0
    6.3020   -4.0350   21.7960 N   0  0  0  0  0  0  0  0  0  0  0  0
    6.2750   -5.3340   22.4480 C   0  0  0  0  0  0  0  0  0  0  0  0
    6.0130   -5.0950   23.8930 C   0  0  0  0  0  0  0  0  0  0  0  0
    5.9460   -3.6190   24.1240 C   0  0  0  0  0  0  0  0  0  0  0  0
    5.5510   -3.2820   25.4970 C   0  0  0  0  0  0  0  0  0  0  0  0
    4.3260   -3.2930   25.7370 O   0  0  0  0  0  0  0  0  0  0  0  0
    6.4290   -2.9390   26.5350 N   0  0  0  0  0  0  0  0  0  0  0  0
    6.2980   -1.6590   27.1070 C   0  0  0  0  0  0  0  0  0  0  0  0
    6.1560   -2.0870   28.5160 C   0  0  0  0  0  0  0  0  0  0  0  0
    5.9770   -3.3990   28.7120 C   0  0  1  0  0  0  0  0  0  0  0  0
    4.7080   -3.7600   29.0980 N   0  0  0  0  0  0  0  0  0  0  0  0
    3.6270   -3.4260   28.3770 C   0  0  0  0  0  0  0  0  0  0  0  0
    5.0170   -4.9660   29.3430 C   0  0  0  0  0  0  0  0  0  0  0  0
    4.3340   -5.9490   30.0240 C   0  0  0  0  0  0  0  0  0  0  0  0
    4.8320   -7.2200   30.2020 C   0  0  0  0  0  0  0  0  0  0  0  0
    6.1800   -7.6780   29.6740 C   0  0  0  0  0  0  0  0  0  0  0  0
    6.8830   -6.5310   28.9250 C   0  0  0  0  0  0  0  0  0  0  0  0
    8.2090   -6.3840   28.2030 C   0  0  0  0  0  0  0  0  0  0  0  0
    8.3150   -5.9430   26.9410 N   0  0  0  0  0  0  0  0  0  0  0  0
    6.2080   -5.2020   28.8180 C   0  0  0  0  0  0  0  0  0  0  0  0
    6.6510   -3.8970   27.5620 C   0  0  0  0  0  0  0  0  0  0  0  0
    7.2810   -3.0230   23.7440 C   0  0  0  0  0  0  0  0  0  0  0  0
    7.4200   -3.2050   22.2460 C   0  0  0  0  0  0  0  0  0  0  0  0
  1  2  1  0
  2  3  2  0
  2  4  1  0
  4  5  1  0
  5  6  1  0
  6  7  1  0
  7  8  1  0
  8  9  2  0
  8 10  1  0
 10 11  1  0
 11 12  1  0
 12 13  1  0
 13 14  1  6
 14 15  1  0
 14 16  1  0
 16 17  2  0
 17 18  1  0
 18 19  2  0
 19 20  1  0
 20 21  1  0
 21 22  3  0
 16 23  1  0
 20 23  2  0
 10 24  1  0
 13 24  1  0
  7 25  1  0
  4 26  1  0
 25 26  1  0
M  END
