piperidine-amides-19208-covalent
     RDKit          3D

 22 24  0  0  0  0  0  0  0  0999 V2000
    7.1810   -3.3790   19.4500 C   0  0  0  0  0  0  0  0  0  0  0  0
    6.4530   -4.2040   20.3730 C   0  0  0  0  0  0  0  0  0  0  0  0
    5.3860   -4.7700   19.9730 O   0  0  0  0  0  0  0  0  0  0  0  0
    6.9420   -4.4400   21.6740 N   0  0  0  0  0  0  0  0  0  0  0  0
    6.4870   -5.6370   22.3930 C   0  0  0  0  0  0  0  0  0  0  0  0
    5.4420   -4.9340   23.3290 C   0  0  0  0  0  0  0  0  0  0  0  0
    6.2500   -3.9830   24.1820 C   0  0  0  0  0  0  0  0  0  0  0  0
    5.3360   -3.2480   25.2480 C   0  0  0  0  0  0  0  0  0  0  0  0
    4.4840   -2.5890   24.6810 O   0  0  0  0  0  0  0  0  0  0  0  0
    5.7050   -3.5260   26.4290 N   0  0  0  0  0  0  0  0  0  0  0  0
    6.4270   -3.6770   27.5070 C   0  0  0  0  0  0  0  0  0  0  0  0
    6.8130   -4.7260   28.2390 C   0  0  0  0  0  0  0  0  0  0  0  0
    5.8450   -4.7390   29.1330 C   0  0  0  0  0  0  0  0  0  0  0  0
    4.5280   -4.4370   28.5570 C   0  0  0  0  0  0  0  0  0  0  0  0
    3.5380   -4.8530   29.5660 C   0  0  0  0  0  0  0  0  0  0  0  0
    2.2670   -4.5460   28.9960 C   0  0  0  0  0  0  0  0  0  0  0  0
    1.7530   -3.9620   27.7480 C   0  0  0  0  0  0  0  0  0  0  0  0
    0.4060   -3.8400   27.5950 O   0  0  0  0  0  0  0  0  0  0  0  0
    3.0370   -3.6240   26.8850 C   0  0  0  0  0  0  0  0  0  0  0  0
    4.5370   -3.8420   27.2370 C   0  0  0  0  0  0  0  0  0  0  0  0
    7.0030   -2.9250   23.3500 C   0  0  0  0  0  0  0  0  0  0  0  0
    7.7790   -3.4860   22.3800 C   0  0  0  0  0  0  0  0  0  0  0  0
  1  2  1  0
  2  3  2  0
  2  4  1  0
  4  5  1  0
  5  6  1  0
  6  7  1  0
  7  8  1  0
  8  9  2  0
  8 10  1  0
 10 11  1  0
 11 12  1  0
 12 13  1  0
 13 14  1  0
 14 15  2  0
 15 16  1  0
 16 17  2  0
 17 18  1  0
 17 19  1  0
 10 20  1  0
 14 20  1  0
 19 20  2  0
  7 21  1  0
  4 22  1  0
 21 22  1  0
M  END
