piperidine-amides-11285-covalent
     RDKit          3D

 19 19  0  0  0  0  0  0  0  0999 V2000
    7.1330   -3.2630   19.1690 C   0  0  0  0  0  0  0  0  0  0  0  0
    6.3640   -3.9810   20.1880 C   0  0  0  0  0  0  0  0  0  0  0  0
    5.2930   -4.5330   19.8770 O   0  0  0  0  0  0  0  0  0  0  0  0
    6.8410   -4.1000   21.4940 N   0  0  0  0  0  0  0  0  0  0  0  0
    7.7180   -3.1080   22.0840 C   0  0  0  0  0  0  0  0  0  0  0  0
    6.9660   -2.5480   23.2510 C   0  0  0  0  0  0  0  0  0  0  0  0
    6.4990   -3.6460   24.1530 C   0  0  0  0  0  0  0  0  0  0  0  0
    5.8210   -3.1650   25.3710 C   0  0  0  0  0  0  0  0  0  0  0  0
    4.5640   -2.9760   25.3810 O   0  0  0  0  0  0  0  0  0  0  0  0
    6.5300   -2.9030   26.5640 N   0  0  0  0  0  0  0  0  0  0  0  0
    6.1020   -3.5390   27.8270 C   0  0  0  0  0  0  0  0  0  0  0  0
    7.1680   -4.4470   28.2580 C   0  0  2  0  0  0  0  0  0  0  0  0
    8.2990   -3.9300   28.3390 O   0  0  0  0  0  0  0  0  0  0  0  0
    7.3760   -5.5550   27.3310 C   0  0  0  0  0  0  0  0  0  0  0  0
    8.4090   -5.2050   26.3080 C   0  0  0  0  0  0  0  0  0  0  0  0
    9.6650   -5.9770   26.5330 C   0  0  0  0  0  0  0  0  0  0  0  0
    7.8410   -5.4320   24.9120 C   0  0  0  0  0  0  0  0  0  0  0  0
    5.6350   -4.6090   23.3590 C   0  0  0  0  0  0  0  0  0  0  0  0
    6.3530   -5.1840   22.3050 C   0  0  0  0  0  0  0  0  0  0  0  0
  1  2  1  0
  2  3  2  0
  2  4  1  0
  4  5  1  0
  5  6  1  0
  6  7  1  0
  7  8  1  0
  8  9  2  0
  8 10  1  0
 10 11  1  0
 11 12  1  0
 12 13  1  6
 12 14  1  0
 14 15  1  0
 15 16  1  0
 15 17  1  0
  7 18  1  0
  4 19  1  0
 18 19  1  0
M  END
