piperidine-amides-7327-covalent
     RDKit          3D

 20 21  0  0  0  0  0  0  0  0999 V2000
    7.0870   -3.2620   19.2150 C   0  0  0  0  0  0  0  0  0  0  0  0
    6.3370   -4.0220   20.2200 C   0  0  0  0  0  0  0  0  0  0  0  0
    5.2310   -4.4920   19.8550 O   0  0  0  0  0  0  0  0  0  0  0  0
    6.8670   -4.2520   21.4930 N   0  0  0  0  0  0  0  0  0  0  0  0
    6.5480   -5.4450   22.2280 C   0  0  0  0  0  0  0  0  0  0  0  0
    5.8720   -5.0210   23.4960 C   0  0  0  0  0  0  0  0  0  0  0  0
    6.7010   -4.0270   24.2760 C   0  0  0  0  0  0  0  0  0  0  0  0
    5.9200   -3.5790   25.4460 C   0  0  0  0  0  0  0  0  0  0  0  0
    4.9060   -2.8690   25.2480 O   0  0  0  0  0  0  0  0  0  0  0  0
    6.2690   -3.9360   26.7620 N   0  0  0  0  0  0  0  0  0  0  0  0
    7.4840   -3.4780   27.3730 C   0  0  0  0  0  0  0  0  0  0  0  0
    7.1910   -2.4640   28.4680 C   0  0  0  0  0  0  0  0  0  0  0  0
    8.3030   -1.6430   28.9210 N   0  0  0  0  0  0  0  0  0  0  0  0
    7.7850   -0.8530   29.8650 N   0  0  0  0  0  0  0  0  0  0  0  0
    6.4600   -1.1220   30.0260 C   0  0  0  0  0  0  0  0  0  0  0  0
    5.4280   -0.2680   31.2020 S   0  0  0  0  0  0  0  0  0  0  0  0
    6.1160   -2.1050   29.1670 N   0  0  0  0  0  0  0  0  0  0  0  0
    4.7300   -2.5260   29.1970 C   0  0  0  0  0  0  0  0  0  0  0  0
    7.0350   -2.8410   23.3920 C   0  0  0  0  0  0  0  0  0  0  0  0
    7.5860   -3.1870   22.1750 C   0  0  0  0  0  0  0  0  0  0  0  0
  1  2  1  0
  2  3  2  0
  2  4  1  0
  4  5  1  0
  5  6  1  0
  6  7  1  0
  7  8  1  0
  8  9  2  0
  8 10  1  0
 10 11  1  0
 11 12  1  0
 12 13  2  0
 13 14  1  0
 14 15  2  0
 15 16  1  0
 12 17  1  0
 15 17  1  0
 17 18  1  0
  7 19  1  0
  4 20  1  0
 19 20  1  0
M  END
