piperidine-amides-34018-covalent
     RDKit          3D

 30 32  0  0  0  0  0  0  0  0999 V2000
    7.1130   -3.3550   19.3090 C   0  0  0  0  0  0  0  0  0  0  0  0
    6.4480   -4.2270   20.2860 C   0  0  0  0  0  0  0  0  0  0  0  0
    5.3850   -4.8110   19.9780 O   0  0  0  0  0  0  0  0  0  0  0  0
    7.0280   -4.4770   21.5380 N   0  0  0  0  0  0  0  0  0  0  0  0
    6.5620   -5.5990   22.2980 C   0  0  0  0  0  0  0  0  0  0  0  0
    5.5240   -5.0340   23.2660 C   0  0  0  0  0  0  0  0  0  0  0  0
    6.1640   -3.8760   24.0220 C   0  0  0  0  0  0  0  0  0  0  0  0
    5.1140   -3.2420   24.8550 C   0  0  0  0  0  0  0  0  0  0  0  0
    4.0030   -2.9710   24.3510 O   0  0  0  0  0  0  0  0  0  0  0  0
    5.4130   -3.0140   26.2200 N   0  0  0  0  0  0  0  0  0  0  0  0
    5.9710   -4.2680   26.8110 C   0  0  0  0  0  0  0  0  0  0  0  0
    5.4080   -4.8380   28.1090 C   0  0  0  0  0  0  0  0  0  0  0  0
    6.0650   -5.5530   29.0850 C   0  0  0  0  0  0  0  0  0  0  0  0
    5.3960   -6.0130   30.2050 C   0  0  0  0  0  0  0  0  0  0  0  0
    4.0380   -5.7900   30.4320 C   0  0  0  0  0  0  0  0  0  0  0  0
    3.2140   -5.1040   29.5850 C   0  0  0  0  0  0  0  0  0  0  0  0
    1.8960   -4.8750   29.7720 O   0  0  0  0  0  0  0  0  0  0  0  0
    0.8650   -5.7280   30.0020 C   0  0  0  0  0  0  0  0  0  0  0  0
    3.8850   -4.5980   28.3740 C   0  0  0  0  0  0  0  0  0  0  0  0
    5.4440   -1.9420   27.3130 C   0  0  0  0  0  0  0  0  0  0  0  0
    5.2750   -2.6330   28.4160 C   0  0  0  0  0  0  0  0  0  0  0  0
    5.3470   -2.9150   26.9520 N   0  0  0  0  0  0  0  0  0  0  0  0
    5.5580   -1.6430   26.3180 N   0  0  0  0  0  0  0  0  0  0  0  0
    5.6900   -1.5320   24.9520 C   0  0  0  0  0  0  0  0  0  0  0  0
    5.9390   -0.2010   24.6840 C   0  0  0  0  0  0  0  0  0  0  0  0
    6.3380    0.1390   23.4190 F   0  0  0  0  0  0  0  0  0  0  0  0
    4.7640    0.4620   24.9870 F   0  0  0  0  0  0  0  0  0  0  0  0
    5.6140   -0.5840   27.2070 C   0  0  0  0  0  0  0  0  0  0  0  0
    6.7810   -2.7930   23.1520 C   0  0  0  0  0  0  0  0  0  0  0  0
    7.7770   -3.4570   22.2180 C   0  0  0  0  0  0  0  0  0  0  0  0
  1  2  1  0
  2  3  2  0
  2  4  1  0
  4  5  1  0
  5  6  1  0
  6  7  1  0
  7  8  1  0
  8  9  2  0
  8 10  1  0
 10 11  1  0
 11 12  1  0
 12 13  2  0
 13 14  1  0
 14 15  2  0
 15 16  1  0
 16 17  1  0
 17 18  1  0
 12 19  1  0
 16 19  2  0
 10 20  1  0
 20 21  1  0
 21 22  2  0
 22 23  1  0
 23 24  1  0
 24 25  1  0
 25 26  1  0
 25 27  1  0
 20 28  2  0
 23 28  1  0
  7 29  1  0
  4 30  1  0
 29 30  1  0
M  END
