piperidine-amides-6258-covalent
     RDKit          3D

 26 28  0  0  0  0  0  0  0  0999 V2000
    7.1650   -3.2760   19.2520 C   0  0  0  0  0  0  0  0  0  0  0  0
    6.3660   -4.0270   20.2300 C   0  0  0  0  0  0  0  0  0  0  0  0
    5.2910   -4.5690   19.8930 O   0  0  0  0  0  0  0  0  0  0  0  0
    6.8380   -4.1850   21.5340 N   0  0  0  0  0  0  0  0  0  0  0  0
    7.7130   -3.1570   22.0830 C   0  0  0  0  0  0  0  0  0  0  0  0
    7.4800   -3.0970   23.5940 C   0  0  0  0  0  0  0  0  0  0  0  0
    6.1230   -3.7070   23.8050 C   0  0  0  0  0  0  0  0  0  0  0  0
    5.5700   -3.3810   25.1190 C   0  0  0  0  0  0  0  0  0  0  0  0
    4.3560   -3.0970   25.1790 O   0  0  0  0  0  0  0  0  0  0  0  0
    6.3650   -3.3960   26.2770 N   0  0  0  0  0  0  0  0  0  0  0  0
    5.6290   -3.2180   27.4810 C   0  0  1  0  0  0  0  0  0  0  0  0
    6.4850   -3.4100   28.7070 C   0  0  0  0  0  0  0  0  0  0  0  0
    6.5510   -2.1180   29.3900 N   0  0  0  0  0  0  0  0  0  0  0  0
    7.6540   -1.1540   29.2710 C   0  0  0  0  0  0  0  0  0  0  0  0
    7.2630   -0.1170   30.0720 C   0  0  0  0  0  0  0  0  0  0  0  0
    6.0200   -0.2920   30.6100 C   0  0  0  0  0  0  0  0  0  0  0  0
    5.5470   -1.5140   30.2440 C   0  0  0  0  0  0  0  0  0  0  0  0
    4.3750   -2.0950   30.6010 O   0  0  0  0  0  0  0  0  0  0  0  0
    5.1250   -1.8360   27.4420 C   0  0  0  0  0  0  0  0  0  0  0  0
    5.9730   -0.7550   26.8290 C   0  0  0  0  0  0  0  0  0  0  0  0
    5.6750    0.7340   26.6690 C   0  0  0  0  0  0  0  0  0  0  0  0
    4.3110    0.7950   27.2980 C   0  0  0  0  0  0  0  0  0  0  0  0
    3.5450   -0.2390   27.8640 C   0  0  0  0  0  0  0  0  0  0  0  0
    3.9380   -1.5090   27.9330 C   0  0  0  0  0  0  0  0  0  0  0  0
    6.1770   -5.2040   23.6240 C   0  0  0  0  0  0  0  0  0  0  0  0
    6.6150   -5.4420   22.2050 C   0  0  0  0  0  0  0  0  0  0  0  0
  1  2  1  0
  2  3  2  0
  2  4  1  0
  4  5  1  0
  5  6  1  0
  6  7  1  0
  7  8  1  0
  8  9  2  0
  8 10  1  0
 10 11  1  0
 11 12  1  1
 12 13  1  0
 13 14  1  0
 14 15  1  0
 15 16  1  0
 13 17  1  0
 16 17  1  0
 17 18  2  0
 11 19  1  0
 19 20  2  0
 20 21  1  0
 21 22  2  0
 22 23  1  0
 19 24  1  0
 23 24  2  0
  7 25  1  0
  4 26  1  0
 25 26  1  0
M  END
