piperidine-amides-4893-covalent
     RDKit          3D

 23 25  0  0  0  0  0  0  0  0999 V2000
    7.1060   -3.3010   19.2020 C   0  0  0  0  0  0  0  0  0  0  0  0
    6.3000   -4.0230   20.2090 C   0  0  0  0  0  0  0  0  0  0  0  0
    5.2060   -4.4810   19.8390 O   0  0  0  0  0  0  0  0  0  0  0  0
    6.7830   -4.2250   21.5010 N   0  0  0  0  0  0  0  0  0  0  0  0
    7.5620   -3.2270   22.1320 C   0  0  0  0  0  0  0  0  0  0  0  0
    7.3270   -3.0420   23.5620 C   0  0  0  0  0  0  0  0  0  0  0  0
    6.5020   -4.0490   24.2880 C   0  0  0  0  0  0  0  0  0  0  0  0
    5.5410   -3.3230   25.1570 C   0  0  0  0  0  0  0  0  0  0  0  0
    4.5610   -3.9350   25.6160 O   0  0  0  0  0  0  0  0  0  0  0  0
    5.7110   -1.9640   25.4510 N   0  0  0  0  0  0  0  0  0  0  0  0
    6.8200   -1.4440   26.2590 C   0  0  0  0  0  0  0  0  0  0  0  0
    8.0940   -2.1410   26.0100 C   0  0  0  0  0  0  0  0  0  0  0  0
    8.2840   -3.3550   26.7390 C   0  0  0  0  0  0  0  0  0  0  0  0
    9.3800   -4.1280   26.6820 C   0  0  0  0  0  0  0  0  0  0  0  0
    9.4550   -5.2370   27.4420 C   0  0  0  0  0  0  0  0  0  0  0  0
    8.4810   -5.9250   27.5140 C   0  0  0  0  0  0  0  0  0  0  0  0
    9.4280   -6.3180   26.4460 C   0  0  0  0  0  0  0  0  0  0  0  0
   10.4210   -3.7490   25.8360 C   0  0  0  0  0  0  0  0  0  0  0  0
   10.3300   -2.5820   25.0700 C   0  0  0  0  0  0  0  0  0  0  0  0
    9.1100   -1.7350   25.1650 C   0  0  0  0  0  0  0  0  0  0  0  0
    8.9520   -0.6040   24.4730 F   0  0  0  0  0  0  0  0  0  0  0  0
    5.7370   -5.0220   23.4520 C   0  0  0  0  0  0  0  0  0  0  0  0
    6.5080   -5.4270   22.2330 C   0  0  0  0  0  0  0  0  0  0  0  0
  1  2  1  0
  2  3  2  0
  2  4  1  0
  4  5  1  0
  5  6  1  0
  6  7  1  0
  7  8  1  0
  8  9  2  0
  8 10  1  0
 10 11  1  0
 11 12  1  0
 12 13  2  0
 13 14  1  0
 14 15  1  0
 15 16  1  0
 15 17  1  0
 16 17  1  0
 14 18  2  0
 18 19  1  0
 12 20  1  0
 19 20  2  0
 20 21  1  0
  7 22  1  0
  4 23  1  0
 22 23  1  0
M  END
