piperidine-amides-494-covalent
     RDKit          3D

 27 29  0  0  0  0  0  0  0  0999 V2000
    7.3440   -3.1070   18.9550 C   0  0  0  0  0  0  0  0  0  0  0  0
    6.4790   -3.6290   19.9810 C   0  0  0  0  0  0  0  0  0  0  0  0
    5.3540   -4.1430   19.6830 O   0  0  0  0  0  0  0  0  0  0  0  0
    6.8740   -3.6260   21.3140 N   0  0  0  0  0  0  0  0  0  0  0  0
    6.1170   -4.5000   22.1980 C   0  0  0  0  0  0  0  0  0  0  0  0
    5.2890   -3.4080   22.9780 C   0  0  0  0  0  0  0  0  0  0  0  0
    6.3200   -2.5350   23.7060 C   0  0  0  0  0  0  0  0  0  0  0  0
    5.8490   -2.0290   25.1670 C   0  0  0  0  0  0  0  0  0  0  0  0
    5.0280   -1.1510   24.9610 O   0  0  0  0  0  0  0  0  0  0  0  0
    6.3520   -2.6110   26.2290 N   0  0  0  0  0  0  0  0  0  0  0  0
    6.5950   -3.1190   27.4980 C   0  0  0  0  0  0  0  0  0  0  0  0
    6.5190   -4.2050   28.3540 C   0  0  0  0  0  0  0  0  0  0  0  0
    5.4100   -3.8820   29.1000 C   0  0  0  0  0  0  0  0  0  0  0  0
    4.3150   -3.7000   28.1640 C   0  0  0  0  0  0  0  0  0  0  0  0
    4.5830   -4.1350   26.8570 N   0  0  0  0  0  0  0  0  0  0  0  0
    4.8830   -3.2180   25.7580 C   0  0  0  0  0  0  0  0  0  0  0  0
    5.5170   -4.0620   24.8700 C   0  0  0  0  0  0  0  0  0  0  0  0
    6.9080   -3.6000   24.5390 C   0  0  0  0  0  0  0  0  0  0  0  0
    7.1870   -4.7490   23.6370 C   0  0  0  0  0  0  0  0  0  0  0  0
    6.6480   -5.9920   23.0440 C   0  0  0  0  0  0  0  0  0  0  0  0
    7.1840   -6.8290   22.2530 C   0  0  0  0  0  0  0  0  0  0  0  0
    5.3730   -6.2010   23.4670 C   0  0  0  0  0  0  0  0  0  0  0  0
    4.8690   -5.3170   24.3010 C   0  0  0  0  0  0  0  0  0  0  0  0
    5.4190   -5.3320   26.7190 C   0  0  0  0  0  0  0  0  0  0  0  0
    6.2300   -5.4350   27.8360 C   0  0  0  0  0  0  0  0  0  0  0  0
    7.7620   -2.6480   23.3520 C   0  0  0  0  0  0  0  0  0  0  0  0
    7.9620   -2.8790   21.8860 C   0  0  0  0  0  0  0  0  0  0  0  0
  1  2  1  0
  2  3  2  0
  2  4  1  0
  4  5  1  0
  5  6  1  0
  6  7  1  0
  7  8  1  0
  8  9  2  0
  8 10  1  0
 10 11  1  0
 11 12  1  0
 12 13  1  0
 13 14  1  0
 14 15  1  0
 15 16  1  0
 16 17  1  0
 17 18  2  0
 18 19  1  0
 19 20  2  0
 20 21  1  0
 20 22  1  0
 17 23  1  0
 22 23  2  0
 15 24  1  0
 12 25  1  0
 24 25  1  0
  7 26  1  0
  4 27  1  0
 26 27  1  0
M  END
