piperidine-amides-2891-covalent
     RDKit          3D

 24 25  0  0  0  0  0  0  0  0999 V2000
    7.1220   -3.3670   19.3000 C   0  0  0  0  0  0  0  0  0  0  0  0
    6.3840   -4.1530   20.2740 C   0  0  0  0  0  0  0  0  0  0  0  0
    5.3350   -4.7100   19.9500 O   0  0  0  0  0  0  0  0  0  0  0  0
    6.9290   -4.3260   21.5880 N   0  0  0  0  0  0  0  0  0  0  0  0
    7.6810   -3.2600   22.1930 C   0  0  0  0  0  0  0  0  0  0  0  0
    6.8940   -2.6820   23.3250 C   0  0  0  0  0  0  0  0  0  0  0  0
    6.5420   -3.8180   24.2650 C   0  0  0  0  0  0  0  0  0  0  0  0
    5.7490   -3.2930   25.4070 C   0  0  0  0  0  0  0  0  0  0  0  0
    4.5280   -3.0610   25.3200 O   0  0  0  0  0  0  0  0  0  0  0  0
    6.4070   -3.0550   26.6310 N   0  0  0  0  0  0  0  0  0  0  0  0
    6.4100   -1.7190   27.1800 C   0  0  0  0  0  0  0  0  0  0  0  0
    6.9780   -1.6390   28.5440 C   0  0  0  0  0  0  0  0  0  0  0  0
    7.0300   -0.4270   29.1710 C   0  0  0  0  0  0  0  0  0  0  0  0
    6.5460    0.7190   28.5080 C   0  0  0  0  0  0  0  0  0  0  0  0
    6.0030    0.7000   27.2170 C   0  0  0  0  0  0  0  0  0  0  0  0
    5.5580    1.9800   26.6880 C   0  0  0  0  0  0  0  0  0  0  0  0
    4.0140    2.6680   26.8480 S   0  0  0  0  0  0  0  0  0  0  0  0
    3.8820    2.7360   28.5480 C   0  0  0  0  0  0  0  0  0  0  0  0
    2.8570    3.6440   28.7120 C   0  0  0  0  0  0  0  0  0  0  0  0
    5.1000    3.0960   29.3830 C   0  0  0  0  0  0  0  0  0  0  0  0
    3.4210    1.3880   29.0010 C   0  0  0  0  0  0  0  0  0  0  0  0
    5.9550   -0.5380   26.5930 C   0  0  0  0  0  0  0  0  0  0  0  0
    5.7450   -4.9040   23.5860 C   0  0  0  0  0  0  0  0  0  0  0  0
    6.4500   -5.4040   22.3690 C   0  0  0  0  0  0  0  0  0  0  0  0
  1  2  1  0
  2  3  2  0
  2  4  1  0
  4  5  1  0
  5  6  1  0
  6  7  1  0
  7  8  1  0
  8  9  2  0
  8 10  1  0
 10 11  1  0
 11 12  2  0
 12 13  1  0
 13 14  2  0
 14 15  1  0
 15 16  1  0
 16 17  1  0
 18 17  1  0
 18 19  1  0
 18 20  1  0
 18 21  1  0
 11 22  1  0
 15 22  2  0
  7 23  1  0
  4 24  1  0
 23 24  1  0
M  END
