piperidine-amides-4228-covalent
     RDKit          3D

 26 28  0  0  0  0  0  0  0  0999 V2000
    7.0970   -3.3320   19.2970 C   0  0  0  0  0  0  0  0  0  0  0  0
    6.4170   -4.1620   20.3030 C   0  0  0  0  0  0  0  0  0  0  0  0
    5.3500   -4.7210   19.9490 O   0  0  0  0  0  0  0  0  0  0  0  0
    6.9810   -4.3650   21.5870 N   0  0  0  0  0  0  0  0  0  0  0  0
    7.7210   -3.3020   22.1710 C   0  0  0  0  0  0  0  0  0  0  0  0
    7.1720   -2.9310   23.4420 C   0  0  0  0  0  0  0  0  0  0  0  0
    5.8890   -3.6060   23.6830 C   0  0  0  0  0  0  0  0  0  0  0  0
    5.3820   -3.2090   25.0220 C   0  0  0  0  0  0  0  0  0  0  0  0
    4.2080   -3.4510   25.3540 O   0  0  0  0  0  0  0  0  0  0  0  0
    6.2420   -2.5500   25.8930 N   0  0  0  0  0  0  0  0  0  0  0  0
    6.0580   -1.3320   26.5770 C   0  0  0  0  0  0  0  0  0  0  0  0
    6.4570   -0.0420   26.1790 C   0  0  0  0  0  0  0  0  0  0  0  0
    6.1940    1.1390   27.0970 C   0  0  0  0  0  0  0  0  0  0  0  0
    5.5760    1.0500   28.3180 C   0  0  0  0  0  0  0  0  0  0  0  0
    5.0850   -0.3280   28.8080 C   0  0  0  0  0  0  0  0  0  0  0  0
    5.3700   -1.4650   27.8500 C   0  0  0  0  0  0  0  0  0  0  0  0
    4.8760   -3.0860   28.2030 S   0  0  0  0  0  0  0  0  0  0  0  0
    6.2840   -3.5090   29.1190 C   0  0  1  0  0  0  0  0  0  0  0  0
    7.5310   -3.6610   28.3080 C   0  0  0  0  0  0  0  0  0  0  0  0
    8.1230   -2.2980   28.5620 C   0  0  0  0  0  0  0  0  0  0  0  0
    7.3790   -1.5280   29.3730 N   0  0  0  0  0  0  0  0  0  0  0  0
    7.9280   -0.5960   30.2820 C   0  0  0  0  0  0  0  0  0  0  0  0
    6.3050   -2.1880   29.8330 C   0  0  0  0  0  0  0  0  0  0  0  0
    5.4940   -1.7400   30.6850 O   0  0  0  0  0  0  0  0  0  0  0  0
    5.9160   -5.1000   23.5210 C   0  0  0  0  0  0  0  0  0  0  0  0
    6.6100   -5.5080   22.3800 C   0  0  0  0  0  0  0  0  0  0  0  0
  1  2  1  0
  2  3  2  0
  2  4  1  0
  4  5  1  0
  5  6  1  0
  6  7  1  0
  7  8  1  0
  8  9  2  0
  8 10  1  0
 10 11  1  0
 11 12  2  0
 12 13  1  0
 13 14  2  0
 14 15  1  0
 11 16  1  0
 15 16  2  0
 16 17  1  0
 18 17  1  6
 18 19  1  0
 19 20  1  0
 20 21  1  0
 21 22  1  0
 18 23  1  0
 21 23  1  0
 23 24  2  0
  7 25  1  0
  4 26  1  0
 25 26  1  0
M  END
