piperidine-amides-6795-covalent
     RDKit          3D

 23 24  0  0  0  0  0  0  0  0999 V2000
    7.0790   -3.3040   19.2520 C   0  0  0  0  0  0  0  0  0  0  0  0
    6.3760   -4.1070   20.2610 C   0  0  0  0  0  0  0  0  0  0  0  0
    5.3420   -4.7370   19.9490 O   0  0  0  0  0  0  0  0  0  0  0  0
    6.8700   -4.2300   21.5680 N   0  0  0  0  0  0  0  0  0  0  0  0
    7.7020   -3.1940   22.1420 C   0  0  0  0  0  0  0  0  0  0  0  0
    6.9270   -2.6370   23.3330 C   0  0  0  0  0  0  0  0  0  0  0  0
    6.5140   -3.8200   24.1800 C   0  0  0  0  0  0  0  0  0  0  0  0
    5.7280   -3.3290   25.3310 C   0  0  0  0  0  0  0  0  0  0  0  0
    4.6270   -2.7880   25.0920 O   0  0  0  0  0  0  0  0  0  0  0  0
    6.2140   -3.4540   26.6560 N   0  0  0  0  0  0  0  0  0  0  0  0
    5.9620   -4.6350   27.4440 C   0  0  0  0  0  0  0  0  0  0  0  0
    4.4750   -4.9370   27.4660 C   0  0  0  0  0  0  0  0  0  0  0  0
    3.5680   -4.8150   26.4220 C   0  0  0  0  0  0  0  0  0  0  0  0
    2.2190   -5.1130   26.5100 C   0  0  0  0  0  0  0  0  0  0  0  0
    1.6290   -5.5730   27.6730 C   0  0  0  0  0  0  0  0  0  0  0  0
   -0.0940   -5.9390   27.7440 Cl  0  0  0  0  0  0  0  0  0  0  0  0
    2.4390   -5.7260   28.7470 C   0  0  0  0  0  0  0  0  0  0  0  0
    3.9100   -5.4410   28.7910 C   0  0  0  0  0  0  0  0  0  0  0  0
    4.6790   -5.5690   29.7430 O   0  0  0  0  0  0  0  0  0  0  0  0
    4.8420   -6.8130   30.3870 C   0  0  0  0  0  0  0  0  0  0  0  0
    5.8440   -7.5310   29.5470 C   0  0  0  0  0  0  0  0  0  0  0  0
    5.6830   -4.8020   23.3820 C   0  0  0  0  0  0  0  0  0  0  0  0
    6.5070   -5.3540   22.3900 C   0  0  0  0  0  0  0  0  0  0  0  0
  1  2  1  0
  2  3  2  0
  2  4  1  0
  4  5  1  0
  5  6  1  0
  6  7  1  0
  7  8  1  0
  8  9  2  0
  8 10  1  0
 10 11  1  0
 11 12  1  0
 12 13  2  0
 13 14  1  0
 14 15  2  0
 15 16  1  0
 15 17  1  0
 12 18  1  0
 17 18  2  0
 18 19  1  0
 19 20  1  0
 20 21  1  0
  7 22  1  0
  4 23  1  0
 22 23  1  0
M  END
