piperidine-amides-5110-covalent
     RDKit          3D

 22 24  0  0  0  0  0  0  0  0999 V2000
    7.1000   -3.3420   19.3460 C   0  0  0  0  0  0  0  0  0  0  0  0
    6.3770   -4.1530   20.3480 C   0  0  0  0  0  0  0  0  0  0  0  0
    5.3390   -4.7210   19.9520 O   0  0  0  0  0  0  0  0  0  0  0  0
    6.8840   -4.3020   21.6520 N   0  0  0  0  0  0  0  0  0  0  0  0
    7.6670   -3.2640   22.2470 C   0  0  0  0  0  0  0  0  0  0  0  0
    7.2530   -2.9350   23.6040 C   0  0  0  0  0  0  0  0  0  0  0  0
    5.9950   -3.5950   23.9920 C   0  0  0  0  0  0  0  0  0  0  0  0
    5.6110   -3.2130   25.3700 C   0  0  0  0  0  0  0  0  0  0  0  0
    4.4040   -3.2410   25.6680 O   0  0  0  0  0  0  0  0  0  0  0  0
    6.5700   -2.8200   26.3110 N   0  0  0  0  0  0  0  0  0  0  0  0
    6.4790   -1.5660   27.0930 C   0  0  0  0  0  0  0  0  0  0  0  0
    7.0150   -1.5600   28.4530 C   0  0  0  0  0  0  0  0  0  0  0  0
    6.9420   -0.3620   29.2430 C   0  0  0  0  0  0  0  0  0  0  0  0
    6.3570    0.7580   28.6770 C   0  0  0  0  0  0  0  0  0  0  0  0
    5.8370    0.7600   27.3630 C   0  0  0  0  0  0  0  0  0  0  0  0
    5.8840   -0.3640   26.5630 C   0  0  0  0  0  0  0  0  0  0  0  0
    5.2940    2.1390   27.1200 C   0  0  0  0  0  0  0  0  0  0  0  0
    6.3800    2.9090   27.4160 C   0  0  0  0  0  0  0  0  0  0  0  0
    6.6100    2.8490   28.7860 C   0  0  0  0  0  0  0  0  0  0  0  0
    6.2860    1.8020   29.3500 O   0  0  0  0  0  0  0  0  0  0  0  0
    5.9540   -5.0670   23.7810 C   0  0  0  0  0  0  0  0  0  0  0  0
    6.6180   -5.4790   22.4800 C   0  0  0  0  0  0  0  0  0  0  0  0
  1  2  1  0
  2  3  2  0
  2  4  1  0
  4  5  1  0
  5  6  1  0
  6  7  1  0
  7  8  1  0
  8  9  2  0
  8 10  1  0
 10 11  1  0
 11 12  2  0
 12 13  1  0
 13 14  2  0
 14 15  1  0
 11 16  1  0
 15 16  2  0
 15 17  1  0
 17 18  1  0
 18 19  1  0
 14 20  1  0
 19 20  1  0
  7 21  1  0
  4 22  1  0
 21 22  1  0
M  END
