piperidine-amides-1387-covalent
     RDKit          3D

 22 23  0  0  0  0  0  0  0  0999 V2000
    7.1670   -3.3060   19.2700 C   0  0  0  0  0  0  0  0  0  0  0  0
    6.3740   -4.0840   20.2520 C   0  0  0  0  0  0  0  0  0  0  0  0
    5.2860   -4.5620   19.8950 O   0  0  0  0  0  0  0  0  0  0  0  0
    6.9090   -4.3220   21.5360 N   0  0  0  0  0  0  0  0  0  0  0  0
    6.5190   -5.4770   22.2850 C   0  0  0  0  0  0  0  0  0  0  0  0
    5.6770   -4.9340   23.4410 C   0  0  0  0  0  0  0  0  0  0  0  0
    6.4520   -3.8390   24.1110 C   0  0  0  0  0  0  0  0  0  0  0  0
    5.7340   -3.3270   25.2940 C   0  0  0  0  0  0  0  0  0  0  0  0
    4.6510   -2.7800   25.0680 O   0  0  0  0  0  0  0  0  0  0  0  0
    6.2670   -3.4730   26.5690 N   0  0  0  0  0  0  0  0  0  0  0  0
    5.8680   -4.4080   27.5620 C   0  0  0  0  0  0  0  0  0  0  0  0
    6.0430   -5.7700   27.4090 C   0  0  0  0  0  0  0  0  0  0  0  0
    6.7400   -4.0870   28.7500 C   0  0  0  0  0  0  0  0  0  0  0  0
    4.5400   -4.3780   28.0460 C   0  0  0  0  0  0  0  0  0  0  0  0
    3.5490   -5.2890   28.2980 N   0  0  0  0  0  0  0  0  0  0  0  0
    2.3160   -5.0450   28.7780 C   0  0  0  0  0  0  0  0  0  0  0  0
    1.8400   -3.6420   29.1210 C   0  0  0  0  0  0  0  0  0  0  0  0
    0.1450   -3.1390   29.7990 Br  0  0  0  0  0  0  0  0  0  0  0  0
    2.9870   -2.7010   28.8150 C   0  0  0  0  0  0  0  0  0  0  0  0
    4.1960   -3.0130   28.3350 N   0  0  0  0  0  0  0  0  0  0  0  0
    6.7170   -2.6660   23.1660 C   0  0  0  0  0  0  0  0  0  0  0  0
    7.6270   -3.2370   22.1560 C   0  0  0  0  0  0  0  0  0  0  0  0
  1  2  1  0
  2  3  2  0
  2  4  1  0
  4  5  1  0
  5  6  1  0
  6  7  1  0
  7  8  1  0
  8  9  2  0
  8 10  1  0
 11 10  1  0
 11 12  1  0
 11 13  1  0
 11 14  1  0
 14 15  2  0
 15 16  1  0
 16 17  2  0
 17 18  1  0
 17 19  1  0
 14 20  1  0
 19 20  2  0
  7 21  1  0
  4 22  1  0
 21 22  1  0
M  END
