piperidine-amides-8364-covalent
     RDKit          3D

 24 26  0  0  0  0  0  0  0  0999 V2000
    7.1090   -3.2860   19.2550 C   0  0  0  0  0  0  0  0  0  0  0  0
    6.4070   -4.0730   20.2630 C   0  0  0  0  0  0  0  0  0  0  0  0
    5.3480   -4.6370   19.9270 O   0  0  0  0  0  0  0  0  0  0  0  0
    6.9600   -4.2300   21.5590 N   0  0  0  0  0  0  0  0  0  0  0  0
    6.6070   -5.4060   22.3060 C   0  0  0  0  0  0  0  0  0  0  0  0
    5.9570   -5.0050   23.6000 C   0  0  0  0  0  0  0  0  0  0  0  0
    5.8190   -3.5020   23.5590 C   0  0  0  0  0  0  0  0  0  0  0  0
    5.0000   -2.9790   24.6920 C   0  0  0  0  0  0  0  0  0  0  0  0
    3.8100   -2.8190   24.4620 O   0  0  0  0  0  0  0  0  0  0  0  0
    5.5800   -2.7340   25.9100 N   0  0  0  0  0  0  0  0  0  0  0  0
    5.3530   -3.6470   26.9500 C   0  0  1  0  0  0  0  0  0  0  0  0
    6.5230   -4.2320   27.2950 C   0  0  0  0  0  0  0  0  0  0  0  0
    7.3650   -3.6030   28.1480 C   0  0  0  0  0  0  0  0  0  0  0  0
    8.5750   -4.0870   28.5530 C   0  0  0  0  0  0  0  0  0  0  0  0
    8.9900   -5.4030   28.0120 C   0  0  0  0  0  0  0  0  0  0  0  0
    8.0720   -6.0930   27.0740 C   0  0  0  0  0  0  0  0  0  0  0  0
    6.8250   -5.4370   26.7550 C   0  0  0  0  0  0  0  0  0  0  0  0
    4.8800   -2.8060   28.1340 C   0  0  0  0  0  0  0  0  0  0  0  0
    5.2360   -1.6040   28.2430 O   0  0  0  0  0  0  0  0  0  0  0  0
    3.3940   -2.9400   28.3900 C   0  0  0  0  0  0  0  0  0  0  0  0
    3.6960   -3.6090   29.5040 C   0  0  0  0  0  0  0  0  0  0  0  0
    5.0980   -3.5980   29.4660 C   0  0  0  0  0  0  0  0  0  0  0  0
    7.1430   -2.8320   23.4980 C   0  0  0  0  0  0  0  0  0  0  0  0
    7.7470   -3.1820   22.1780 C   0  0  0  0  0  0  0  0  0  0  0  0
  1  2  1  0
  2  3  2  0
  2  4  1  0
  4  5  1  0
  5  6  1  0
  6  7  1  0
  7  8  1  0
  8  9  2  0
  8 10  1  0
 11 10  1  6
 11 12  1  0
 12 13  2  0
 13 14  1  0
 14 15  2  0
 15 16  1  0
 12 17  1  0
 16 17  2  0
 11 18  1  0
 18 19  1  0
 18 20  1  0
 20 21  1  0
 18 22  1  0
 21 22  1  0
  7 23  1  0
  4 24  1  0
 23 24  1  0
M  END
