piperidine-amides-32900-covalent
     RDKit          3D

 30 34  0  0  0  0  0  0  0  0999 V2000
    7.0210   -3.3600   19.4410 C   0  0  0  0  0  0  0  0  0  0  0  0
    6.3580   -4.2710   20.4200 C   0  0  0  0  0  0  0  0  0  0  0  0
    5.4070   -4.9600   20.0070 O   0  0  0  0  0  0  0  0  0  0  0  0
    6.8230   -4.3700   21.7640 N   0  0  0  0  0  0  0  0  0  0  0  0
    6.5910   -5.5700   22.5500 C   0  0  0  0  0  0  0  0  0  0  0  0
    6.1000   -5.2120   23.9840 C   0  0  0  0  0  0  0  0  0  0  0  0
    5.9810   -3.7260   24.1320 C   0  0  0  0  0  0  0  0  0  0  0  0
    5.1570   -3.2180   25.2980 C   0  0  0  0  0  0  0  0  0  0  0  0
    4.1800   -2.5590   24.9480 O   0  0  0  0  0  0  0  0  0  0  0  0
    5.4030   -3.4370   26.6800 N   0  0  0  0  0  0  0  0  0  0  0  0
    6.6190   -3.5830   27.2510 C   0  0  0  0  0  0  0  0  0  0  0  0
    6.8570   -4.6670   28.0620 C   0  0  0  0  0  0  0  0  0  0  0  0
    5.8040   -5.1270   28.7850 C   0  0  0  0  0  0  0  0  0  0  0  0
    5.9480   -6.2480   29.5720 C   0  0  0  0  0  0  0  0  0  0  0  0
    4.8170   -6.7830   30.3690 C   0  0  0  0  0  0  0  0  0  0  0  0
    3.4490   -6.1030   30.3430 C   0  0  0  0  0  0  0  0  0  0  0  0
    3.5030   -4.8910   29.4130 C   0  0  0  0  0  0  0  0  0  0  0  0
    4.6020   -4.4510   28.6960 C   0  0  0  0  0  0  0  0  0  0  0  0
    4.4800   -3.2370   27.8060 C   0  0  1  0  0  0  0  0  0  0  0  0
    4.8790   -2.2660   28.9190 C   0  0  0  0  0  0  0  0  0  0  0  0
    4.3110   -1.5110   29.8920 N   0  0  0  0  0  0  0  0  0  0  0  0
    5.2080   -0.8320   30.5960 C   0  0  0  0  0  0  0  0  0  0  0  0
    5.1800    0.1510   31.7800 C   0  0  0  0  0  0  0  0  0  0  0  0
    6.4250    0.7650   32.3640 C   0  0  0  0  0  0  0  0  0  0  0  0
    7.7340    0.3450   31.6970 C   0  0  0  0  0  0  0  0  0  0  0  0
    7.6460   -0.6100   30.5570 C   0  0  0  0  0  0  0  0  0  0  0  0
    6.5360   -1.2090   29.9760 C   0  0  0  0  0  0  0  0  0  0  0  0
    6.2180   -2.0680   28.9870 N   0  0  0  0  0  0  0  0  0  0  0  0
    7.2330   -2.9990   23.7410 C   0  0  0  0  0  0  0  0  0  0  0  0
    7.5730   -3.2770   22.3020 C   0  0  0  0  0  0  0  0  0  0  0  0
  1  2  1  0
  2  3  2  0
  2  4  1  0
  4  5  1  0
  5  6  1  0
  6  7  1  0
  7  8  1  0
  8  9  2  0
  8 10  1  0
 10 11  1  0
 11 12  1  0
 12 13  1  0
 13 14  2  0
 14 15  1  0
 15 16  2  0
 16 17  1  0
 13 18  1  0
 17 18  2  0
 10 19  1  0
 18 19  1  0
 19 20  1  1
 20 21  2  0
 21 22  1  0
 22 23  2  0
 23 24  1  0
 24 25  2  0
 25 26  1  0
 22 27  1  0
 26 27  2  0
 20 28  1  0
 27 28  1  0
  7 29  1  0
  4 30  1  0
 29 30  1  0
M  END
