piperidine-amides-32924-covalent
     RDKit          3D

 29 31  0  0  0  0  0  0  0  0999 V2000
    7.0310   -3.3620   19.3910 C   0  0  0  0  0  0  0  0  0  0  0  0
    6.3690   -4.2640   20.3810 C   0  0  0  0  0  0  0  0  0  0  0  0
    5.3900   -4.9270   19.9970 O   0  0  0  0  0  0  0  0  0  0  0  0
    6.8700   -4.3870   21.7020 N   0  0  0  0  0  0  0  0  0  0  0  0
    6.6510   -5.6040   22.4650 C   0  0  0  0  0  0  0  0  0  0  0  0
    6.3230   -5.2620   23.9400 C   0  0  0  0  0  0  0  0  0  0  0  0
    6.2710   -3.7760   24.0740 C   0  0  0  0  0  0  0  0  0  0  0  0
    6.0370   -3.1710   25.4240 C   0  0  0  0  0  0  0  0  0  0  0  0
    5.9910   -1.9460   25.4170 O   0  0  0  0  0  0  0  0  0  0  0  0
    5.8130   -3.8770   26.6180 N   0  0  0  0  0  0  0  0  0  0  0  0
    4.5840   -3.7330   27.3120 C   0  0  0  0  0  0  0  0  0  0  0  0
    4.3370   -4.1620   28.5960 C   0  0  0  0  0  0  0  0  0  0  0  0
    4.9940   -5.4300   28.7540 N   0  0  0  0  0  0  0  0  0  0  0  0
    4.6940   -6.2690   29.8250 C   0  0  0  0  0  0  0  0  0  0  0  0
    5.7540   -6.8130   30.4980 C   0  0  0  0  0  0  0  0  0  0  0  0
    5.5120   -7.7050   31.6690 C   0  0  0  0  0  0  0  0  0  0  0  0
    4.1020   -8.0600   32.1700 C   0  0  0  0  0  0  0  0  0  0  0  0
    3.0770   -7.3690   31.2860 C   0  0  0  0  0  0  0  0  0  0  0  0
    3.4240   -6.5690   30.2370 C   0  0  0  0  0  0  0  0  0  0  0  0
    2.3820   -6.0130   29.5270 O   0  0  0  0  0  0  0  0  0  0  0  0
    1.6990   -6.7840   28.5680 C   0  0  0  0  0  0  0  0  0  0  0  0
    0.2650   -7.1530   28.9310 C   0  0  0  0  0  0  0  0  0  0  0  0
    0.2900   -7.8910   30.0500 N   0  0  0  0  0  0  0  0  0  0  0  0
    0.9890   -9.1570   30.0670 C   0  0  0  0  0  0  0  0  0  0  0  0
   -0.2340   -7.4430   31.1800 C   0  0  0  0  0  0  0  0  0  0  0  0
    6.4070   -5.3060   28.4810 C   0  0  0  0  0  0  0  0  0  0  0  0
    6.3470   -3.8640   27.9600 C   0  0  0  0  0  0  0  0  0  0  0  0
    7.5290   -3.1150   23.5780 C   0  0  0  0  0  0  0  0  0  0  0  0
    7.6430   -3.2960   22.2200 C   0  0  0  0  0  0  0  0  0  0  0  0
  1  2  1  0
  2  3  2  0
  2  4  1  0
  4  5  1  0
  5  6  1  0
  6  7  1  0
  7  8  1  0
  8  9  2  0
  8 10  1  0
 10 11  1  0
 11 12  1  0
 12 13  1  0
 13 14  1  0
 14 15  2  0
 15 16  1  0
 16 17  2  0
 17 18  1  0
 14 19  1  0
 18 19  2  0
 19 20  1  0
 20 21  1  0
 21 22  1  0
 22 23  1  0
 23 24  1  0
 23 25  1  0
 13 26  1  0
 10 27  1  0
 26 27  1  0
  7 28  1  0
  4 29  1  0
 28 29  1  0
M  END
