piperidine-amides-27943-covalent
     RDKit          3D

 26 28  0  0  0  0  0  0  0  0999 V2000
    7.1150   -3.2870   19.2200 C   0  0  0  0  0  0  0  0  0  0  0  0
    6.3790   -4.0690   20.2330 C   0  0  0  0  0  0  0  0  0  0  0  0
    5.2950   -4.5800   19.8890 O   0  0  0  0  0  0  0  0  0  0  0  0
    6.9280   -4.2700   21.4980 N   0  0  0  0  0  0  0  0  0  0  0  0
    7.6730   -3.2320   22.1310 C   0  0  0  0  0  0  0  0  0  0  0  0
    7.1980   -2.8460   23.4520 C   0  0  0  0  0  0  0  0  0  0  0  0
    6.4910   -3.8910   24.2290 C   0  0  0  0  0  0  0  0  0  0  0  0
    5.6900   -3.2050   25.2570 C   0  0  0  0  0  0  0  0  0  0  0  0
    4.5620   -2.7730   24.9570 O   0  0  0  0  0  0  0  0  0  0  0  0
    6.2010   -3.0820   26.5480 N   0  0  0  0  0  0  0  0  0  0  0  0
    6.3130   -1.7670   27.2410 C   0  0  0  0  0  0  0  0  0  0  0  0
    7.0550   -1.7470   28.5250 C   0  0  0  0  0  0  0  0  0  0  0  0
    7.1820   -0.5110   29.2540 C   0  0  0  0  0  0  0  0  0  0  0  0
    7.8140   -0.2650   30.4510 C   0  0  0  0  0  0  0  0  0  0  0  0
    6.5190    0.7190   28.6140 C   0  0  0  0  0  0  0  0  0  0  0  0
    5.8470    0.6710   27.4230 C   0  0  0  0  0  0  0  0  0  0  0  0
    5.7170   -0.5010   26.7180 C   0  0  0  0  0  0  0  0  0  0  0  0
    5.0360   -0.5130   25.5310 C   0  0  0  0  0  0  0  0  0  0  0  0
    6.5680   -4.2860   27.1980 C   0  0  0  0  0  0  0  0  0  0  0  0
    8.0290   -4.3810   27.2830 C   0  0  0  0  0  0  0  0  0  0  0  0
    8.1930   -5.8390   27.5980 C   0  0  0  0  0  0  0  0  0  0  0  0
    6.9160   -6.3740   27.6570 O   0  0  0  0  0  0  0  0  0  0  0  0
    6.2160   -5.8230   28.7120 C   0  0  0  0  0  0  0  0  0  0  0  0
    5.9740   -4.4630   28.4150 C   0  0  0  0  0  0  0  0  0  0  0  0
    5.8000   -4.9220   23.4440 C   0  0  0  0  0  0  0  0  0  0  0  0
    6.6020   -5.4270   22.3030 C   0  0  0  0  0  0  0  0  0  0  0  0
  1  2  1  0
  2  3  2  0
  2  4  1  0
  4  5  1  0
  5  6  1  0
  6  7  1  0
  7  8  1  0
  8  9  2  0
  8 10  1  0
 10 11  1  0
 11 12  2  0
 12 13  1  0
 13 14  1  0
 13 15  2  0
 15 16  1  0
 11 17  1  0
 16 17  2  0
 17 18  1  0
 10 19  1  0
 19 20  1  0
 20 21  1  0
 21 22  1  0
 22 23  1  0
 19 24  1  0
 23 24  1  0
  7 25  1  0
  4 26  1  0
 25 26  1  0
M  END
