piperidine-amides-13413-covalent
     RDKit          3D

 23 24  0  0  0  0  0  0  0  0999 V2000
    7.0810   -3.2840   19.2710 C   0  0  0  0  0  0  0  0  0  0  0  0
    6.3470   -4.0820   20.2970 C   0  0  0  0  0  0  0  0  0  0  0  0
    5.3450   -4.7300   19.9490 O   0  0  0  0  0  0  0  0  0  0  0  0
    6.8280   -4.1130   21.6280 N   0  0  0  0  0  0  0  0  0  0  0  0
    7.7220   -3.0940   22.1370 C   0  0  0  0  0  0  0  0  0  0  0  0
    7.5330   -3.0490   23.6500 C   0  0  0  0  0  0  0  0  0  0  0  0
    6.1770   -3.6040   23.8880 C   0  0  0  0  0  0  0  0  0  0  0  0
    5.6560   -3.3700   25.2520 C   0  0  0  0  0  0  0  0  0  0  0  0
    4.4280   -3.3700   25.3720 O   0  0  0  0  0  0  0  0  0  0  0  0
    6.5290   -3.1650   26.3230 N   0  0  0  0  0  0  0  0  0  0  0  0
    6.2290   -3.3130   27.7030 C   0  0  0  0  0  0  0  0  0  0  0  0
    5.8770   -2.2430   28.4870 C   0  0  0  0  0  0  0  0  0  0  0  0
    4.8210   -2.3090   29.5050 N   0  0  0  0  0  0  0  0  0  0  0  0
    4.6590   -1.1050   30.1340 N   0  0  0  0  0  0  0  0  0  0  0  0
    5.5560   -0.0490   29.6600 C   0  0  0  0  0  0  0  0  0  0  0  0
    5.5900    1.2490   30.1150 C   0  0  0  0  0  0  0  0  0  0  0  0
    5.3540    2.3780   29.4610 O   0  0  0  0  0  0  0  0  0  0  0  0
    5.9020    1.4590   31.4300 O   0  0  0  0  0  0  0  0  0  0  0  0
    5.8160    2.7460   32.0420 C   0  0  0  0  0  0  0  0  0  0  0  0
    6.8480    3.6600   31.3670 C   0  0  0  0  0  0  0  0  0  0  0  0
    6.5670   -0.6000   28.4560 S   0  0  0  0  0  0  0  0  0  0  0  0
    6.0120   -5.0660   23.5770 C   0  0  0  0  0  0  0  0  0  0  0  0
    6.6710   -5.3280   22.3840 C   0  0  0  0  0  0  0  0  0  0  0  0
  1  2  1  0
  2  3  2  0
  2  4  1  0
  4  5  1  0
  5  6  1  0
  6  7  1  0
  7  8  1  0
  8  9  2  0
  8 10  1  0
 10 11  1  0
 11 12  1  0
 12 13  2  0
 13 14  1  0
 14 15  2  0
 15 16  1  0
 16 17  2  0
 16 18  1  0
 18 19  1  0
 19 20  1  0
 12 21  1  0
 15 21  1  0
  7 22  1  0
  4 23  1  0
 22 23  1  0
M  END
