piperidine-amides-32861-covalent
     RDKit          3D

 29 33  0  0  0  0  0  0  0  0999 V2000
    6.9610   -3.3660   19.4500 C   0  0  0  0  0  0  0  0  0  0  0  0
    6.3100   -4.2860   20.4350 C   0  0  0  0  0  0  0  0  0  0  0  0
    5.3960   -5.0120   20.0090 O   0  0  0  0  0  0  0  0  0  0  0  0
    6.7390   -4.3560   21.7970 N   0  0  0  0  0  0  0  0  0  0  0  0
    6.5510   -5.5520   22.5920 C   0  0  0  0  0  0  0  0  0  0  0  0
    6.0000   -5.1840   23.9980 C   0  0  0  0  0  0  0  0  0  0  0  0
    5.9110   -3.6910   24.1260 C   0  0  0  0  0  0  0  0  0  0  0  0
    5.1820   -3.0960   25.3350 C   0  0  0  0  0  0  0  0  0  0  0  0
    4.6040   -2.0460   25.0820 O   0  0  0  0  0  0  0  0  0  0  0  0
    5.1120   -3.6380   26.6570 N   0  0  0  0  0  0  0  0  0  0  0  0
    4.4820   -3.0790   27.7890 C   0  0  0  0  0  0  0  0  0  0  0  0
    4.7990   -3.5180   29.0690 C   0  0  0  0  0  0  0  0  0  0  0  0
    5.2550   -4.8970   28.9460 N   0  0  0  0  0  0  0  0  0  0  0  0
    5.2540   -5.8820   29.9450 C   0  0  0  0  0  0  0  0  0  0  0  0
    6.4230   -6.5140   30.3110 O   0  0  0  0  0  0  0  0  0  0  0  0
    4.0610   -6.2480   30.5470 C   0  0  1  0  0  0  0  0  0  0  0  0
    4.3120   -6.7730   31.8900 C   0  0  0  0  0  0  0  0  0  0  0  0
    2.9550   -6.8520   32.5170 C   0  0  2  0  0  0  0  0  0  0  0  0
    2.5010   -8.0710   31.7360 C   0  0  0  0  0  0  0  0  0  0  0  0
    2.3020   -7.7610   30.4040 C   0  0  1  0  0  0  0  0  0  0  0  0
    1.1260   -6.8900   30.1900 C   0  0  0  0  0  0  0  0  0  0  0  0
    1.7820   -5.6550   30.8520 C   0  0  1  0  0  0  0  0  0  0  0  0
    2.3000   -5.5920   32.1400 C   0  0  0  0  0  0  0  0  0  0  0  0
    3.2130   -5.1790   30.6860 C   0  0  0  0  0  0  0  0  0  0  0  0
    3.3900   -7.1660   29.7990 C   0  0  0  0  0  0  0  0  0  0  0  0
    6.4420   -5.0310   28.1530 C   0  0  0  0  0  0  0  0  0  0  0  0
    6.2500   -4.3480   26.8420 C   0  0  0  0  0  0  0  0  0  0  0  0
    7.2480   -3.0640   23.7500 C   0  0  0  0  0  0  0  0  0  0  0  0
    7.4890   -3.2590   22.4080 C   0  0  0  0  0  0  0  0  0  0  0  0
  1  2  1  0
  2  3  2  0
  2  4  1  0
  4  5  1  0
  5  6  1  0
  6  7  1  0
  7  8  1  0
  8  9  2  0
  8 10  1  0
 10 11  1  0
 11 12  1  0
 12 13  1  0
 13 14  1  0
 14 15  2  0
 16 14  1  6
 16 17  1  0
 18 17  1  6
 18 19  1  0
 20 19  1  1
 20 21  1  0
 22 21  1  6
 18 23  1  0
 22 23  1  0
 16 24  1  0
 22 24  1  0
 16 25  1  0
 20 25  1  0
 13 26  1  0
 10 27  1  0
 26 27  1  0
  7 28  1  0
  4 29  1  0
 28 29  1  0
M  END
