piperidine-amides-24034-covalent
     RDKit          3D

 24 27  0  0  0  0  0  0  0  0999 V2000
    7.0480   -3.3420   19.3280 C   0  0  0  0  0  0  0  0  0  0  0  0
    6.3940   -4.1900   20.3370 C   0  0  0  0  0  0  0  0  0  0  0  0
    5.3670   -4.8140   19.9730 O   0  0  0  0  0  0  0  0  0  0  0  0
    6.9300   -4.3380   21.6420 N   0  0  0  0  0  0  0  0  0  0  0  0
    6.5580   -5.4700   22.4110 C   0  0  0  0  0  0  0  0  0  0  0  0
    6.2020   -5.1630   23.7970 C   0  0  0  0  0  0  0  0  0  0  0  0
    6.6540   -3.8550   24.3270 C   0  0  0  0  0  0  0  0  0  0  0  0
    5.7740   -3.4210   25.4860 C   0  0  0  0  0  0  0  0  0  0  0  0
    4.7720   -2.7300   25.2180 O   0  0  0  0  0  0  0  0  0  0  0  0
    5.9970   -3.7620   26.8610 N   0  0  0  0  0  0  0  0  0  0  0  0
    6.1370   -5.0600   27.3900 C   0  0  0  0  0  0  0  0  0  0  0  0
    5.1520   -5.5540   28.2590 C   0  0  0  0  0  0  0  0  0  0  0  0
    4.5160   -4.7250   29.0830 N   0  0  0  0  0  0  0  0  0  0  0  0
    3.8860   -5.0700   30.3370 C   0  0  2  0  0  0  0  0  0  0  0  0
    4.4510   -6.3030   30.7760 C   0  0  0  0  0  0  0  0  0  0  0  0
    3.0980   -6.8500   31.3870 C   0  0  2  0  0  0  0  0  0  0  0  0
    2.8900   -7.7610   30.1830 C   0  0  0  0  0  0  0  0  0  0  0  0
    2.1770   -6.5730   29.4850 C   0  0  0  0  0  0  0  0  0  0  0  0
    2.4420   -5.2860   30.1820 C   0  0  1  0  0  0  0  0  0  0  0  0
    2.1190   -5.7760   31.5100 C   0  0  0  0  0  0  0  0  0  0  0  0
    5.3700   -3.5850   29.1330 C   0  0  0  0  0  0  0  0  0  0  0  0
    5.5560   -2.8180   27.8530 C   0  0  0  0  0  0  0  0  0  0  0  0
    6.7680   -2.7890   23.2890 C   0  0  0  0  0  0  0  0  0  0  0  0
    7.6040   -3.2480   22.2900 C   0  0  0  0  0  0  0  0  0  0  0  0
  1  2  1  0
  2  3  2  0
  2  4  1  0
  4  5  1  0
  5  6  1  0
  6  7  1  0
  7  8  1  0
  8  9  2  0
  8 10  1  0
 10 11  1  0
 11 12  1  0
 12 13  1  0
 14 13  1  6
 14 15  1  0
 16 15  1  6
 16 17  1  0
 17 18  1  0
 14 19  1  0
 19 18  1  6
 16 20  1  0
 19 20  1  0
 13 21  1  0
 10 22  1  0
 21 22  1  0
  7 23  1  0
  4 24  1  0
 23 24  1  0
M  END
