piperidine-amides-2618-covalent
     RDKit          3D

 26 28  0  0  0  0  0  0  0  0999 V2000
    7.1150   -3.1130   18.9540 C   0  0  0  0  0  0  0  0  0  0  0  0
    6.1620   -3.7060   19.9360 C   0  0  0  0  0  0  0  0  0  0  0  0
    5.0680   -4.0860   19.5630 O   0  0  0  0  0  0  0  0  0  0  0  0
    6.5200   -3.8440   21.2400 N   0  0  0  0  0  0  0  0  0  0  0  0
    7.1770   -2.7480   21.9200 C   0  0  0  0  0  0  0  0  0  0  0  0
    6.3510   -2.2470   23.0640 C   0  0  0  0  0  0  0  0  0  0  0  0
    5.9280   -3.4770   23.8240 C   0  0  0  0  0  0  0  0  0  0  0  0
    5.3930   -3.1510   25.1310 C   0  0  0  0  0  0  0  0  0  0  0  0
    4.8200   -2.0890   25.3990 O   0  0  0  0  0  0  0  0  0  0  0  0
    5.5740   -4.1590   26.0510 N   0  0  0  0  0  0  0  0  0  0  0  0
    6.0060   -5.3890   25.4180 C   0  0  0  0  0  0  0  0  0  0  0  0
    7.4660   -5.2530   25.0140 C   0  0  0  0  0  0  0  0  0  0  0  0
    8.0850   -4.2220   24.3310 C   0  0  0  0  0  0  0  0  0  0  0  0
    8.6440   -3.3410   25.1990 C   0  0  0  0  0  0  0  0  0  0  0  0
    9.2960   -2.3140   24.7160 C   0  0  0  0  0  0  0  0  0  0  0  0
    9.5400   -1.9250   23.3300 C   0  0  0  0  0  0  0  0  0  0  0  0
    8.9030   -2.9210   22.4060 C   0  0  0  0  0  0  0  0  0  0  0  0
    8.0900   -4.1990   22.8110 C   0  0  0  0  0  0  0  0  0  0  0  0
    8.1540   -5.0310   26.1630 C   0  0  0  0  0  0  0  0  0  0  0  0
    7.2010   -4.3630   27.0730 C   0  0  0  0  0  0  0  0  0  0  0  0
    7.6400   -3.9300   28.3760 C   0  0  0  0  0  0  0  0  0  0  0  0
    9.0370   -4.2330   28.5980 C   0  0  0  0  0  0  0  0  0  0  0  0
    9.8970   -4.9250   27.6350 C   0  0  0  0  0  0  0  0  0  0  0  0
    9.4380   -5.3070   26.4530 C   0  0  0  0  0  0  0  0  0  0  0  0
    5.0430   -4.3130   22.9720 C   0  0  0  0  0  0  0  0  0  0  0  0
    5.9820   -4.9940   21.9890 C   0  0  0  0  0  0  0  0  0  0  0  0
  1  2  1  0
  2  3  2  0
  2  4  1  0
  4  5  1  0
  5  6  1  0
  6  7  1  0
  7  8  1  0
  8  9  2  0
  8 10  1  0
 10 11  1  0
 11 12  1  0
 12 13  1  0
 13 14  2  0
 14 15  1  0
 15 16  2  0
 16 17  1  0
 13 18  1  0
 17 18  2  0
 12 19  1  0
 19 20  2  0
 20 21  1  0
 21 22  2  0
 22 23  1  0
 19 24  1  0
 23 24  2  0
  7 25  1  0
  4 26  1  0
 25 26  1  0
M  END
