piperidine-amides-12690-covalent
     RDKit          3D

 22 23  0  0  0  0  0  0  0  0999 V2000
    7.1330   -3.2390   19.1620 C   0  0  0  0  0  0  0  0  0  0  0  0
    6.3450   -3.9790   20.1750 C   0  0  0  0  0  0  0  0  0  0  0  0
    5.2390   -4.4260   19.8200 O   0  0  0  0  0  0  0  0  0  0  0  0
    6.8480   -4.2220   21.4560 N   0  0  0  0  0  0  0  0  0  0  0  0
    7.6040   -3.2010   22.1090 C   0  0  0  0  0  0  0  0  0  0  0  0
    7.1920   -2.8880   23.4760 C   0  0  0  0  0  0  0  0  0  0  0  0
    6.4650   -3.9630   24.1910 C   0  0  0  0  0  0  0  0  0  0  0  0
    5.7730   -3.4120   25.3790 C   0  0  0  0  0  0  0  0  0  0  0  0
    4.5330   -3.2860   25.3350 O   0  0  0  0  0  0  0  0  0  0  0  0
    6.4950   -3.0320   26.5250 N   0  0  0  0  0  0  0  0  0  0  0  0
    6.3500   -3.6630   27.8580 C   0  0  2  0  0  0  0  0  0  0  0  0
    5.5390   -4.9170   27.8260 C   0  0  0  0  0  0  0  0  0  0  0  0
    5.8410   -5.7960   26.8370 F   0  0  0  0  0  0  0  0  0  0  0  0
    5.9110   -2.6390   28.8330 C   0  0  0  0  0  0  0  0  0  0  0  0
    4.6160   -2.5920   29.2790 C   0  0  0  0  0  0  0  0  0  0  0  0
    4.1770   -1.6510   30.1880 C   0  0  0  0  0  0  0  0  0  0  0  0
    5.0410   -0.7160   30.6830 C   0  0  0  0  0  0  0  0  0  0  0  0
    4.4900    0.6050   31.9400 Br  0  0  0  0  0  0  0  0  0  0  0  0
    6.3360   -0.7510   30.2450 C   0  0  0  0  0  0  0  0  0  0  0  0
    6.7560   -1.6860   29.3470 C   0  0  0  0  0  0  0  0  0  0  0  0
    5.5500   -4.7170   23.2760 C   0  0  0  0  0  0  0  0  0  0  0  0
    6.3920   -5.3430   22.2390 C   0  0  0  0  0  0  0  0  0  0  0  0
  1  2  1  0
  2  3  2  0
  2  4  1  0
  4  5  1  0
  5  6  1  0
  6  7  1  0
  7  8  1  0
  8  9  2  0
  8 10  1  0
 10 11  1  0
 11 12  1  6
 12 13  1  0
 11 14  1  0
 14 15  2  0
 15 16  1  0
 16 17  2  0
 17 18  1  0
 17 19  1  0
 14 20  1  0
 19 20  2  0
  7 21  1  0
  4 22  1  0
 21 22  1  0
M  END
