piperidine-amides-5419-covalent
     RDKit          3D

 20 21  0  0  0  0  0  0  0  0999 V2000
    7.1410   -3.2880   19.1990 C   0  0  0  0  0  0  0  0  0  0  0  0
    6.3500   -3.9960   20.2020 C   0  0  0  0  0  0  0  0  0  0  0  0
    5.2720   -4.5170   19.8720 O   0  0  0  0  0  0  0  0  0  0  0  0
    6.8160   -4.1470   21.5110 N   0  0  0  0  0  0  0  0  0  0  0  0
    7.6850   -3.1760   22.1390 C   0  0  0  0  0  0  0  0  0  0  0  0
    6.9490   -2.7100   23.3590 C   0  0  0  0  0  0  0  0  0  0  0  0
    6.4970   -3.8650   24.1980 C   0  0  0  0  0  0  0  0  0  0  0  0
    5.8020   -3.4390   25.4400 C   0  0  0  0  0  0  0  0  0  0  0  0
    4.5600   -3.1910   25.4210 O   0  0  0  0  0  0  0  0  0  0  0  0
    6.4770   -3.2760   26.6710 N   0  0  0  0  0  0  0  0  0  0  0  0
    5.9220   -3.7740   27.9550 C   0  0  2  0  0  0  0  0  0  0  0  0
    6.7660   -4.8440   28.5370 C   0  0  0  0  0  0  0  0  0  0  0  0
    4.5390   -4.4110   27.7770 C   0  0  0  0  0  0  0  0  0  0  0  0
    4.5850   -5.8830   28.0660 C   0  0  0  0  0  0  0  0  0  0  0  0
    3.2730   -6.2170   27.8520 N   0  0  0  0  0  0  0  0  0  0  0  0
    2.8170   -7.5890   28.0180 C   0  0  0  0  0  0  0  0  0  0  0  0
    2.4230   -5.1400   27.4650 C   0  0  0  0  0  0  0  0  0  0  0  0
    3.2520   -4.0500   27.4320 N   0  0  0  0  0  0  0  0  0  0  0  0
    5.6480   -4.8050   23.3720 C   0  0  0  0  0  0  0  0  0  0  0  0
    6.3680   -5.2850   22.2730 C   0  0  0  0  0  0  0  0  0  0  0  0
  1  2  1  0
  2  3  2  0
  2  4  1  0
  4  5  1  0
  5  6  1  0
  6  7  1  0
  7  8  1  0
  8  9  2  0
  8 10  1  0
 10 11  1  0
 11 12  1  6
 11 13  1  0
 13 14  2  0
 14 15  1  0
 15 16  1  0
 15 17  1  0
 13 18  1  0
 17 18  2  0
  7 19  1  0
  4 20  1  0
 19 20  1  0
M  END
