piperidine-amides-1007-covalent
     RDKit          3D

 24 26  0  0  0  0  0  0  0  0999 V2000
    7.0500   -3.3580   19.3450 C   0  0  0  0  0  0  0  0  0  0  0  0
    6.3670   -4.2510   20.3160 C   0  0  0  0  0  0  0  0  0  0  0  0
    5.3360   -4.8490   19.9730 O   0  0  0  0  0  0  0  0  0  0  0  0
    6.9460   -4.4390   21.5870 N   0  0  0  0  0  0  0  0  0  0  0  0
    7.6230   -3.3720   22.2710 C   0  0  0  0  0  0  0  0  0  0  0  0
    6.5780   -2.8090   23.2200 C   0  0  0  0  0  0  0  0  0  0  0  0
    6.3690   -3.8800   24.2190 C   0  0  0  0  0  0  0  0  0  0  0  0
    5.5010   -3.4870   25.3510 C   0  0  0  0  0  0  0  0  0  0  0  0
    4.2930   -3.7030   25.2180 O   0  0  0  0  0  0  0  0  0  0  0  0
    6.0410   -2.8870   26.4920 N   0  0  0  0  0  0  0  0  0  0  0  0
    6.2770   -1.4960   26.6260 C   0  0  0  0  0  0  0  0  0  0  0  0
    6.7930   -0.9070   25.4940 C   0  0  0  0  0  0  0  0  0  0  0  0
    6.3080    0.3720   25.1170 C   0  0  0  0  0  0  0  0  0  0  0  0
    6.7530    1.0560   24.0070 C   0  0  0  0  0  0  0  0  0  0  0  0
    7.7890    0.4830   23.1230 C   0  0  0  0  0  0  0  0  0  0  0  0
    8.3280    1.3980   21.7190 Cl  0  0  0  0  0  0  0  0  0  0  0  0
    8.3850   -0.8870   23.4220 C   0  0  0  0  0  0  0  0  0  0  0  0
    7.7500   -1.4690   24.6910 C   0  0  0  0  0  0  0  0  0  0  0  0
    7.0510   -1.2310   27.7710 C   0  0  0  0  0  0  0  0  0  0  0  0
    6.5430   -0.2640   28.7970 C   0  0  0  0  0  0  0  0  0  0  0  0
    5.3990    0.1400   27.8990 C   0  0  0  0  0  0  0  0  0  0  0  0
    5.1280   -0.8260   26.9910 C   0  0  0  0  0  0  0  0  0  0  0  0
    5.7950   -5.1290   23.6240 C   0  0  0  0  0  0  0  0  0  0  0  0
    6.5610   -5.5850   22.3960 C   0  0  0  0  0  0  0  0  0  0  0  0
  1  2  1  0
  2  3  2  0
  2  4  1  0
  4  5  1  0
  5  6  1  0
  6  7  1  0
  7  8  1  0
  8  9  2  0
  8 10  1  0
 11 10  1  0
 11 12  1  0
 12 13  2  0
 13 14  1  0
 14 15  2  0
 15 16  1  0
 15 17  1  0
 12 18  1  0
 17 18  2  0
 11 19  1  0
 19 20  1  0
 20 21  1  0
 11 22  1  0
 21 22  1  0
  7 23  1  0
  4 24  1  0
 23 24  1  0
M  END
