piperidine-amides-13934-covalent
     RDKit          3D

 26 28  0  0  0  0  0  0  0  0999 V2000
    7.0700   -3.2400   19.2010 C   0  0  0  0  0  0  0  0  0  0  0  0
    6.3480   -4.0580   20.2190 C   0  0  0  0  0  0  0  0  0  0  0  0
    5.2940   -4.6280   19.9060 O   0  0  0  0  0  0  0  0  0  0  0  0
    6.8970   -4.2100   21.5040 N   0  0  0  0  0  0  0  0  0  0  0  0
    7.7400   -3.1940   22.0880 C   0  0  0  0  0  0  0  0  0  0  0  0
    6.9820   -2.6430   23.2900 C   0  0  0  0  0  0  0  0  0  0  0  0
    6.6760   -3.8080   24.1600 C   0  0  0  0  0  0  0  0  0  0  0  0
    6.2030   -3.3740   25.4840 C   0  0  0  0  0  0  0  0  0  0  0  0
    4.9900   -3.1400   25.6100 O   0  0  0  0  0  0  0  0  0  0  0  0
    7.1480   -3.2490   26.5090 N   0  0  0  0  0  0  0  0  0  0  0  0
    8.0470   -4.2690   26.9260 C   0  0  0  0  0  0  0  0  0  0  0  0
    9.1870   -4.6730   26.2560 C   0  0  0  0  0  0  0  0  0  0  0  0
   10.3090   -3.8940   25.8260 C   0  0  0  0  0  0  0  0  0  0  0  0
   11.5350   -4.4970   26.1420 N   0  0  0  0  0  0  0  0  0  0  0  0
   12.7400   -4.0030   25.8360 C   0  0  0  0  0  0  0  0  0  0  0  0
   13.8510   -5.0150   26.3280 C   0  0  0  0  0  0  0  0  0  0  0  0
   14.0620   -6.3750   26.2010 C   0  0  0  0  0  0  0  0  0  0  0  0
   14.8210   -7.8660   26.5610 C   0  0  0  0  0  0  0  0  0  0  0  0
   15.5950   -7.7190   27.2040 C   0  0  0  0  0  0  0  0  0  0  0  0
   15.7220   -6.2610   27.6330 C   0  0  0  0  0  0  0  0  0  0  0  0
   14.6570   -4.9630   27.0690 C   0  0  0  0  0  0  0  0  0  0  0  0
   12.6210   -2.7240   25.1170 C   0  0  0  0  0  0  0  0  0  0  0  0
   13.7620   -1.9340   24.6140 C   0  0  0  0  0  0  0  0  0  0  0  0
   10.8810   -2.4800   25.0360 S   0  0  0  0  0  0  0  0  0  0  0  0
    5.7770   -4.8250   23.5270 C   0  0  0  0  0  0  0  0  0  0  0  0
    6.5500   -5.3560   22.3180 C   0  0  0  0  0  0  0  0  0  0  0  0
  1  2  1  0
  2  3  2  0
  2  4  1  0
  4  5  1  0
  5  6  1  0
  6  7  1  0
  7  8  1  0
  8  9  2  0
  8 10  1  0
 10 11  1  0
 11 12  1  0
 12 13  1  0
 13 14  2  0
 14 15  1  0
 15 16  1  0
 16 17  2  0
 17 18  1  0
 18 19  2  0
 19 20  1  0
 16 21  1  0
 20 21  2  0
 15 22  2  0
 22 23  1  0
 13 24  1  0
 22 24  1  0
  7 25  1  0
  4 26  1  0
 25 26  1  0
M  END
