piperidine-amides-8268-covalent
     RDKit          3D

 25 27  0  0  0  0  0  0  0  0999 V2000
    7.0440   -3.3460   19.3070 C   0  0  0  0  0  0  0  0  0  0  0  0
    6.3880   -4.2030   20.2930 C   0  0  0  0  0  0  0  0  0  0  0  0
    5.3370   -4.7790   19.9580 O   0  0  0  0  0  0  0  0  0  0  0  0
    6.9650   -4.4180   21.5660 N   0  0  0  0  0  0  0  0  0  0  0  0
    6.5380   -5.5660   22.2980 C   0  0  0  0  0  0  0  0  0  0  0  0
    5.7430   -5.1000   23.4800 C   0  0  0  0  0  0  0  0  0  0  0  0
    6.6630   -4.2350   24.3190 C   0  0  0  0  0  0  0  0  0  0  0  0
    5.9470   -3.8390   25.5690 C   0  0  0  0  0  0  0  0  0  0  0  0
    4.7160   -3.7930   25.5140 O   0  0  0  0  0  0  0  0  0  0  0  0
    6.7280   -3.5320   26.6790 N   0  0  0  0  0  0  0  0  0  0  0  0
    7.3640   -2.2680   26.6840 C   0  0  1  0  0  0  0  0  0  0  0  0
    6.5160   -1.1580   26.4690 C   0  0  0  0  0  0  0  0  0  0  0  0
    6.3230   -0.2840   27.5820 C   0  0  0  0  0  0  0  0  0  0  0  0
    6.9010   -0.5900   28.8180 C   0  0  0  0  0  0  0  0  0  0  0  0
    6.1460    0.6580   29.0120 C   0  0  0  0  0  0  0  0  0  0  0  0
    5.4500    1.1630   27.7990 C   0  0  0  0  0  0  0  0  0  0  0  0
    5.7360    0.2220   26.7150 C   0  0  0  0  0  0  0  0  0  0  0  0
    5.2370    0.4490   25.5660 O   0  0  0  0  0  0  0  0  0  0  0  0
    5.2240    1.8070   25.2340 C   0  0  0  0  0  0  0  0  0  0  0  0
    5.1930    2.0440   23.8720 F   0  0  0  0  0  0  0  0  0  0  0  0
    4.1480    2.4790   25.7740 F   0  0  0  0  0  0  0  0  0  0  0  0
    6.5440   -0.9420   26.8710 C   0  0  0  0  0  0  0  0  0  0  0  0
    7.2850   -1.5710   27.9580 C   0  0  0  0  0  0  0  0  0  0  0  0
    6.9750   -2.9910   23.5350 C   0  0  0  0  0  0  0  0  0  0  0  0
    7.5980   -3.2850   22.2020 C   0  0  0  0  0  0  0  0  0  0  0  0
  1  2  1  0
  2  3  2  0
  2  4  1  0
  4  5  1  0
  5  6  1  0
  6  7  1  0
  7  8  1  0
  8  9  2  0
  8 10  1  0
 11 10  1  1
 11 12  1  0
 12 13  1  0
 13 14  1  0
 14 15  1  0
 15 16  2  0
 16 17  1  0
 17 18  1  0
 18 19  1  0
 19 20  1  0
 19 21  1  0
 17 22  2  0
 11 23  1  0
 14 23  2  0
 22 23  1  0
  7 24  1  0
  4 25  1  0
 24 25  1  0
M  END
