piperidine-amides-30980-covalent
     RDKit          3D

 26 28  0  0  0  0  0  0  0  0999 V2000
    7.0670   -3.3610   19.3410 C   0  0  0  0  0  0  0  0  0  0  0  0
    6.4210   -4.2310   20.3260 C   0  0  0  0  0  0  0  0  0  0  0  0
    5.3960   -4.8480   19.9860 O   0  0  0  0  0  0  0  0  0  0  0  0
    6.9470   -4.4400   21.6200 N   0  0  0  0  0  0  0  0  0  0  0  0
    6.5460   -5.5590   22.4170 C   0  0  0  0  0  0  0  0  0  0  0  0
    5.6750   -4.9620   23.4980 C   0  0  0  0  0  0  0  0  0  0  0  0
    6.3380   -3.8500   24.2910 C   0  0  0  0  0  0  0  0  0  0  0  0
    5.4120   -3.2700   25.3040 C   0  0  0  0  0  0  0  0  0  0  0  0
    4.6320   -2.3420   24.9580 O   0  0  0  0  0  0  0  0  0  0  0  0
    5.3010   -3.6720   26.6610 N   0  0  0  0  0  0  0  0  0  0  0  0
    6.3950   -3.5270   27.5670 C   0  0  0  0  0  0  0  0  0  0  0  0
    6.4640   -4.7810   28.4030 C   0  0  0  0  0  0  0  0  0  0  0  0
    5.2160   -5.0830   28.8870 N   0  0  0  0  0  0  0  0  0  0  0  0
    4.8360   -5.7840   30.0590 C   0  0  0  0  0  0  0  0  0  0  0  0
    3.4850   -5.3920   30.5730 C   0  0  0  0  0  0  0  0  0  0  0  0
    2.9970   -6.0870   31.8250 C   0  0  0  0  0  0  0  0  0  0  0  0
    3.8980   -7.1010   32.4440 C   0  0  0  0  0  0  0  0  0  0  0  0
    3.4460   -7.9770   33.9040 Cl  0  0  0  0  0  0  0  0  0  0  0  0
    5.1220   -7.3820   31.8820 C   0  0  0  0  0  0  0  0  0  0  0  0
    5.9550   -8.3010   32.4390 F   0  0  0  0  0  0  0  0  0  0  0  0
    5.5620   -6.7320   30.7170 C   0  0  0  0  0  0  0  0  0  0  0  0
    4.7320   -3.8270   28.8010 C   0  0  0  0  0  0  0  0  0  0  0  0
    4.1490   -3.4080   27.4510 C   0  0  2  0  0  0  0  0  0  0  0  0
    2.9550   -4.1320   26.8810 C   0  0  0  0  0  0  0  0  0  0  0  0
    6.8990   -2.7820   23.3890 C   0  0  0  0  0  0  0  0  0  0  0  0
    7.6350   -3.3520   22.2350 C   0  0  0  0  0  0  0  0  0  0  0  0
  1  2  1  0
  2  3  2  0
  2  4  1  0
  4  5  1  0
  5  6  1  0
  6  7  1  0
  7  8  1  0
  8  9  2  0
  8 10  1  0
 10 11  1  0
 11 12  1  0
 12 13  1  0
 13 14  1  0
 14 15  2  0
 15 16  1  0
 16 17  2  0
 17 18  1  0
 17 19  1  0
 19 20  1  0
 14 21  1  0
 19 21  2  0
 13 22  1  0
 10 23  1  0
 22 23  1  0
 23 24  1  6
  7 25  1  0
  4 26  1  0
 25 26  1  0
M  END
