piperidine-amides-3535-covalent
     RDKit          3D

 20 21  0  0  0  0  0  0  0  0999 V2000
    7.0900   -3.2700   19.2280 C   0  0  0  0  0  0  0  0  0  0  0  0
    6.3040   -4.0260   20.1990 C   0  0  0  0  0  0  0  0  0  0  0  0
    5.2340   -4.5210   19.8660 O   0  0  0  0  0  0  0  0  0  0  0  0
    6.7930   -4.2640   21.5230 N   0  0  0  0  0  0  0  0  0  0  0  0
    6.4190   -5.4490   22.2330 C   0  0  0  0  0  0  0  0  0  0  0  0
    6.3010   -5.1380   23.6990 C   0  0  0  0  0  0  0  0  0  0  0  0
    5.9640   -3.6590   23.8820 C   0  0  0  0  0  0  0  0  0  0  0  0
    5.8840   -3.3180   25.3250 C   0  0  0  0  0  0  0  0  0  0  0  0
    4.7910   -3.2190   25.9190 O   0  0  0  0  0  0  0  0  0  0  0  0
    7.0880   -3.0840   26.0350 N   0  0  0  0  0  0  0  0  0  0  0  0
    8.0780   -4.1360   26.1100 C   0  0  0  0  0  0  0  0  0  0  0  0
    9.4050   -3.5620   25.6480 C   0  0  0  0  0  0  0  0  0  0  0  0
    9.4740   -2.4150   24.8760 C   0  0  0  0  0  0  0  0  0  0  0  0
   10.7490   -1.8940   24.4610 N   0  0  0  0  0  0  0  0  0  0  0  0
   11.9140   -2.6020   24.8890 C   0  0  0  0  0  0  0  0  0  0  0  0
   13.1340   -2.0870   24.4990 C   0  0  0  0  0  0  0  0  0  0  0  0
   11.7830   -3.7220   25.6480 C   0  0  0  0  0  0  0  0  0  0  0  0
   10.5560   -4.1550   25.9870 N   0  0  0  0  0  0  0  0  0  0  0  0
    6.8750   -2.6610   23.2050 C   0  0  0  0  0  0  0  0  0  0  0  0
    7.6200   -3.3090   22.2540 C   0  0  0  0  0  0  0  0  0  0  0  0
  1  2  1  0
  2  3  2  0
  2  4  1  0
  4  5  1  0
  5  6  1  0
  6  7  1  0
  7  8  1  0
  8  9  2  0
  8 10  1  0
 10 11  1  0
 11 12  1  0
 12 13  2  0
 13 14  1  0
 14 15  2  0
 15 16  1  0
 15 17  1  0
 12 18  1  0
 17 18  2  0
  7 19  1  0
  4 20  1  0
 19 20  1  0
M  END
