piperidine-amides-15230-covalent
     RDKit          3D

 19 20  0  0  0  0  0  0  0  0999 V2000
    7.0230   -3.3260   19.3630 C   0  0  0  0  0  0  0  0  0  0  0  0
    6.3480   -4.1880   20.3490 C   0  0  0  0  0  0  0  0  0  0  0  0
    5.3910   -4.9100   19.9910 O   0  0  0  0  0  0  0  0  0  0  0  0
    6.7800   -4.2470   21.6870 N   0  0  0  0  0  0  0  0  0  0  0  0
    7.6870   -3.2310   22.2060 C   0  0  0  0  0  0  0  0  0  0  0  0
    7.3130   -2.9920   23.6720 C   0  0  0  0  0  0  0  0  0  0  0  0
    5.9450   -3.6050   23.8100 C   0  0  0  0  0  0  0  0  0  0  0  0
    5.2800   -3.2340   25.0860 C   0  0  0  0  0  0  0  0  0  0  0  0
    4.0960   -2.8540   25.0260 O   0  0  0  0  0  0  0  0  0  0  0  0
    5.9410   -3.3150   26.3350 N   0  0  0  0  0  0  0  0  0  0  0  0
    6.6030   -2.1730   26.8870 C   0  0  0  0  0  0  0  0  0  0  0  0
    8.0500   -2.4080   27.0770 C   0  0  0  0  0  0  0  0  0  0  0  0
    8.5430   -1.7830   28.1680 F   0  0  0  0  0  0  0  0  0  0  0  0
    8.0880   -3.8080   27.2980 F   0  0  0  0  0  0  0  0  0  0  0  0
    8.7130   -2.1720   25.9090 F   0  0  0  0  0  0  0  0  0  0  0  0
    6.0870   -0.9170   26.5820 C   0  0  0  0  0  0  0  0  0  0  0  0
    5.9460   -1.3040   27.9340 C   0  0  0  0  0  0  0  0  0  0  0  0
    5.9480   -5.0920   23.6310 C   0  0  0  0  0  0  0  0  0  0  0  0
    6.6120   -5.4570   22.4740 C   0  0  0  0  0  0  0  0  0  0  0  0
  1  2  1  0
  2  3  2  0
  2  4  1  0
  4  5  1  0
  5  6  1  0
  6  7  1  0
  7  8  1  0
  8  9  2  0
  8 10  1  0
 11 10  1  0
 11 12  1  0
 12 13  1  0
 12 14  1  0
 12 15  1  0
 11 16  1  0
 11 17  1  0
 16 17  1  0
  7 18  1  0
  4 19  1  0
 18 19  1  0
M  END
