piperidine-amides-2676-covalent
     RDKit          3D

 25 27  0  0  0  0  0  0  0  0999 V2000
    7.1320   -3.2490   19.1960 C   0  0  0  0  0  0  0  0  0  0  0  0
    6.3680   -4.0360   20.2000 C   0  0  0  0  0  0  0  0  0  0  0  0
    5.2790   -4.4840   19.8530 O   0  0  0  0  0  0  0  0  0  0  0  0
    6.9100   -4.2890   21.4580 N   0  0  0  0  0  0  0  0  0  0  0  0
    7.6960   -3.3090   22.1610 C   0  0  0  0  0  0  0  0  0  0  0  0
    6.9010   -2.7600   23.3060 C   0  0  0  0  0  0  0  0  0  0  0  0
    6.3810   -3.9120   24.1660 C   0  0  0  0  0  0  0  0  0  0  0  0
    5.6750   -3.3410   25.3220 C   0  0  0  0  0  0  0  0  0  0  0  0
    4.4740   -3.0590   25.2060 O   0  0  0  0  0  0  0  0  0  0  0  0
    6.3550   -3.1220   26.5420 N   0  0  0  0  0  0  0  0  0  0  0  0
    6.6980   -1.7690   26.9220 C   0  0  0  0  0  0  0  0  0  0  0  0
    5.4310   -1.0650   27.4010 C   0  0  0  0  0  0  0  0  0  0  0  0
    4.6560   -2.0870   28.1490 N   0  0  0  0  0  0  0  0  0  0  0  0
    3.7600   -1.3660   29.0720 C   0  0  0  0  0  0  0  0  0  0  0  0
    2.6070   -2.0810   29.0130 C   0  0  0  0  0  0  0  0  0  0  0  0
    3.2260   -3.6610   28.7780 S   0  0  0  0  0  0  0  0  0  0  0  0
    4.5520   -3.5860   29.8410 C   0  0  0  0  0  0  0  0  0  0  0  0
    5.5700   -2.7030   29.1380 C   0  0  0  0  0  0  0  0  0  0  0  0
    4.6260   -0.1690   26.5390 C   0  0  0  0  0  0  0  0  0  0  0  0
    5.4710    1.0070   26.0900 C   0  0  0  0  0  0  0  0  0  0  0  0
    5.4190    1.9770   27.2360 C   0  0  0  0  0  0  0  0  0  0  0  0
    5.9200    1.3580   28.4940 C   0  0  0  0  0  0  0  0  0  0  0  0
    5.9700   -0.1470   28.4980 C   0  0  0  0  0  0  0  0  0  0  0  0
    5.5050   -4.8250   23.3490 C   0  0  0  0  0  0  0  0  0  0  0  0
    6.3690   -5.3670   22.2480 C   0  0  0  0  0  0  0  0  0  0  0  0
  1  2  1  0
  2  3  2  0
  2  4  1  0
  4  5  1  0
  5  6  1  0
  6  7  1  0
  7  8  1  0
  8  9  2  0
  8 10  1  0
 10 11  1  0
 12 11  1  0
 12 13  1  0
 13 14  1  0
 14 15  1  0
 15 16  1  0
 16 17  1  0
 13 18  1  0
 17 18  1  0
 12 19  1  0
 19 20  1  0
 20 21  1  0
 21 22  1  0
 12 23  1  0
 22 23  1  0
  7 24  1  0
  4 25  1  0
 24 25  1  0
M  END
