piperidine-amides-28635-covalent
     RDKit          3D

 26 28  0  0  0  0  0  0  0  0999 V2000
    7.0090   -3.3590   19.4030 C   0  0  0  0  0  0  0  0  0  0  0  0
    6.3720   -4.2250   20.3940 C   0  0  0  0  0  0  0  0  0  0  0  0
    5.4270   -4.9380   20.0050 O   0  0  0  0  0  0  0  0  0  0  0  0
    6.8450   -4.2640   21.7420 N   0  0  0  0  0  0  0  0  0  0  0  0
    6.6290   -5.4650   22.5100 C   0  0  0  0  0  0  0  0  0  0  0  0
    6.1930   -5.1640   23.9340 C   0  0  0  0  0  0  0  0  0  0  0  0
    6.2260   -3.6610   24.1250 C   0  0  0  0  0  0  0  0  0  0  0  0
    5.8140   -3.1670   25.5040 C   0  0  0  0  0  0  0  0  0  0  0  0
    5.4310   -2.0070   25.5290 O   0  0  0  0  0  0  0  0  0  0  0  0
    5.8210   -3.9910   26.6380 N   0  0  0  0  0  0  0  0  0  0  0  0
    4.6870   -4.7310   26.9360 C   0  0  0  0  0  0  0  0  0  0  0  0
    4.9430   -5.7850   27.8140 C   0  0  0  0  0  0  0  0  0  0  0  0
    5.2370   -5.2180   29.1390 N   0  0  0  0  0  0  0  0  0  0  0  0
    4.8790   -5.8340   30.3570 C   0  0  0  0  0  0  0  0  0  0  0  0
    5.7000   -6.8860   30.7680 C   0  0  0  0  0  0  0  0  0  0  0  0
    5.3810   -7.5840   32.0530 C   0  0  0  0  0  0  0  0  0  0  0  0
    4.1680   -7.1380   32.8790 C   0  0  0  0  0  0  0  0  0  0  0  0
    3.4110   -6.0160   32.2940 C   0  0  0  0  0  0  0  0  0  0  0  0
    2.3960   -5.5760   32.8930 O   0  0  0  0  0  0  0  0  0  0  0  0
    1.7180   -6.5750   33.5870 C   0  0  0  0  0  0  0  0  0  0  0  0
    3.7780   -5.4340   31.1100 C   0  0  0  0  0  0  0  0  0  0  0  0
    3.0220   -4.3920   30.6240 F   0  0  0  0  0  0  0  0  0  0  0  0
    6.4920   -4.7990   28.5480 C   0  0  0  0  0  0  0  0  0  0  0  0
    6.3640   -3.5750   27.8800 C   0  0  0  0  0  0  0  0  0  0  0  0
    7.5440   -3.0990   23.7400 C   0  0  0  0  0  0  0  0  0  0  0  0
    7.7020   -3.2140   22.2540 C   0  0  0  0  0  0  0  0  0  0  0  0
  1  2  1  0
  2  3  2  0
  2  4  1  0
  4  5  1  0
  5  6  1  0
  6  7  1  0
  7  8  1  0
  8  9  2  0
  8 10  1  0
 10 11  1  0
 11 12  1  0
 12 13  1  0
 13 14  1  0
 14 15  2  0
 15 16  1  0
 16 17  2  0
 17 18  1  0
 18 19  1  0
 19 20  1  0
 14 21  1  0
 18 21  2  0
 21 22  1  0
 13 23  1  0
 10 24  1  0
 23 24  1  0
  7 25  1  0
  4 26  1  0
 25 26  1  0
M  END
