piperidine-amides-29646-covalent
     RDKit          3D

 27 29  0  0  0  0  0  0  0  0999 V2000
    7.1390   -3.3310   19.2250 C   0  0  0  0  0  0  0  0  0  0  0  0
    6.4300   -4.1380   20.2100 C   0  0  0  0  0  0  0  0  0  0  0  0
    5.3490   -4.6540   19.9290 O   0  0  0  0  0  0  0  0  0  0  0  0
    7.0260   -4.3910   21.4850 N   0  0  0  0  0  0  0  0  0  0  0  0
    7.7800   -3.3270   22.1000 C   0  0  0  0  0  0  0  0  0  0  0  0
    6.8370   -2.4860   22.8830 C   0  0  0  0  0  0  0  0  0  0  0  0
    6.1690   -3.4490   23.8260 C   0  0  0  0  0  0  0  0  0  0  0  0
    5.3010   -2.7040   24.7650 C   0  0  0  0  0  0  0  0  0  0  0  0
    4.2320   -2.1370   24.4990 O   0  0  0  0  0  0  0  0  0  0  0  0
    5.8150   -2.7240   26.0360 N   0  0  0  0  0  0  0  0  0  0  0  0
    6.6340   -3.8570   26.1420 C   0  0  0  0  0  0  0  0  0  0  0  0
    8.0280   -3.4660   25.6580 C   0  0  0  0  0  0  0  0  0  0  0  0
    8.4940   -2.1600   25.4510 C   0  0  0  0  0  0  0  0  0  0  0  0
    9.8190   -1.8510   25.0350 C   0  0  0  0  0  0  0  0  0  0  0  0
   10.7050   -2.8130   24.8410 C   0  0  0  0  0  0  0  0  0  0  0  0
   12.1060   -2.7160   24.4530 C   0  0  0  0  0  0  0  0  0  0  0  0
   10.3190   -4.0470   25.0040 C   0  0  0  0  0  0  0  0  0  0  0  0
    9.0770   -4.4340   25.3590 C   0  0  0  0  0  0  0  0  0  0  0  0
    8.6300   -5.7330   25.4950 C   0  0  0  0  0  0  0  0  0  0  0  0
    5.9660   -1.6820   27.0620 C   0  0  0  0  0  0  0  0  0  0  0  0
    7.0490   -1.7100   27.9480 C   0  0  0  0  0  0  0  0  0  0  0  0
    6.9660   -0.7860   29.0010 C   0  0  0  0  0  0  0  0  0  0  0  0
    6.3740    0.5640   28.7150 C   0  0  0  0  0  0  0  0  0  0  0  0
    5.8610    0.8060   27.2970 C   0  0  0  0  0  0  0  0  0  0  0  0
    5.7750   -0.4280   26.4400 C   0  0  0  0  0  0  0  0  0  0  0  0
    5.4580   -4.6010   23.1950 C   0  0  0  0  0  0  0  0  0  0  0  0
    6.3120   -5.2860   22.3330 C   0  0  0  0  0  0  0  0  0  0  0  0
  1  2  1  0
  2  3  2  0
  2  4  1  0
  4  5  1  0
  5  6  1  0
  6  7  1  0
  7  8  1  0
  8  9  2  0
  8 10  1  0
 10 11  1  0
 11 12  1  0
 12 13  2  0
 13 14  1  0
 14 15  2  0
 15 16  1  0
 15 17  1  0
 12 18  1  0
 17 18  2  0
 18 19  1  0
 10 20  1  0
 20 21  1  0
 21 22  1  0
 22 23  1  0
 23 24  1  0
 20 25  1  0
 24 25  1  0
  7 26  1  0
  4 27  1  0
 26 27  1  0
M  END
