piperidine-amides-27862-covalent
     RDKit          3D

 26 28  0  0  0  0  0  0  0  0999 V2000
    7.0550   -3.3760   19.4160 C   0  0  0  0  0  0  0  0  0  0  0  0
    6.3680   -4.2260   20.4100 C   0  0  0  0  0  0  0  0  0  0  0  0
    5.3860   -4.8740   19.9890 O   0  0  0  0  0  0  0  0  0  0  0  0
    6.8330   -4.3240   21.7370 N   0  0  0  0  0  0  0  0  0  0  0  0
    6.4520   -5.4240   22.5540 C   0  0  0  0  0  0  0  0  0  0  0  0
    5.8220   -5.0490   23.8390 C   0  0  0  0  0  0  0  0  0  0  0  0
    6.2330   -3.7480   24.4460 C   0  0  0  0  0  0  0  0  0  0  0  0
    5.1580   -3.2350   25.3850 C   0  0  0  0  0  0  0  0  0  0  0  0
    4.0770   -2.9290   24.8720 O   0  0  0  0  0  0  0  0  0  0  0  0
    5.3410   -3.0970   26.8050 N   0  0  0  0  0  0  0  0  0  0  0  0
    6.5940   -3.3010   27.4000 C   0  0  0  0  0  0  0  0  0  0  0  0
    6.5540   -4.5730   28.1900 C   0  0  0  0  0  0  0  0  0  0  0  0
    5.3350   -4.8640   28.8600 C   0  0  0  0  0  0  0  0  0  0  0  0
    5.1940   -5.9690   29.6590 C   0  0  0  0  0  0  0  0  0  0  0  0
    6.1530   -6.9130   29.9050 C   0  0  0  0  0  0  0  0  0  0  0  0
    3.9160   -6.2550   30.3570 C   0  0  0  0  0  0  0  0  0  0  0  0
    2.8920   -5.3800   30.1630 C   0  0  0  0  0  0  0  0  0  0  0  0
    3.0480   -4.2930   29.3550 C   0  0  0  0  0  0  0  0  0  0  0  0
    4.2530   -4.0240   28.6980 C   0  0  0  0  0  0  0  0  0  0  0  0
    4.3500   -2.8120   27.8080 C   0  0  2  0  0  0  0  0  0  0  0  0
    2.9750   -2.4840   27.2640 C   0  0  0  0  0  0  0  0  0  0  0  0
    2.0860   -2.0040   28.2110 O   0  0  0  0  0  0  0  0  0  0  0  0
    2.6050   -2.6000   26.0440 O   0  0  0  0  0  0  0  0  0  0  0  0
    1.6530   -3.5640   25.6530 C   0  0  0  0  0  0  0  0  0  0  0  0
    6.7290   -2.7270   23.4980 C   0  0  0  0  0  0  0  0  0  0  0  0
    7.5990   -3.2740   22.3810 C   0  0  0  0  0  0  0  0  0  0  0  0
  1  2  1  0
  2  3  2  0
  2  4  1  0
  4  5  1  0
  5  6  1  0
  6  7  1  0
  7  8  1  0
  8  9  2  0
  8 10  1  0
 10 11  1  0
 11 12  1  0
 12 13  1  0
 13 14  2  0
 14 15  1  0
 14 16  1  0
 16 17  2  0
 17 18  1  0
 13 19  1  0
 18 19  2  0
 10 20  1  0
 19 20  1  0
 20 21  1  6
 21 22  2  0
 21 23  1  0
 23 24  1  0
  7 25  1  0
  4 26  1  0
 25 26  1  0
M  END
