piperidine-amides-27567-covalent
     RDKit          3D

 25 26  0  0  0  0  0  0  0  0999 V2000
    7.0760   -3.2720   19.2580 C   0  0  0  0  0  0  0  0  0  0  0  0
    6.3520   -4.0390   20.2830 C   0  0  0  0  0  0  0  0  0  0  0  0
    5.2930   -4.6050   19.9050 O   0  0  0  0  0  0  0  0  0  0  0  0
    6.8420   -4.1630   21.5880 N   0  0  0  0  0  0  0  0  0  0  0  0
    7.7070   -3.1520   22.1710 C   0  0  0  0  0  0  0  0  0  0  0  0
    7.4310   -3.0930   23.6460 C   0  0  0  0  0  0  0  0  0  0  0  0
    6.0600   -3.6420   23.9380 C   0  0  0  0  0  0  0  0  0  0  0  0
    5.7270   -3.5890   25.3820 C   0  0  0  0  0  0  0  0  0  0  0  0
    4.6030   -4.0180   25.7200 O   0  0  0  0  0  0  0  0  0  0  0  0
    6.5710   -3.0640   26.3800 N   0  0  0  0  0  0  0  0  0  0  0  0
    7.5790   -3.9000   27.0110 C   0  0  0  0  0  0  0  0  0  0  0  0
    7.0090   -5.2500   27.4580 C   0  0  0  0  0  0  0  0  0  0  0  0
    6.6480   -1.6730   26.6500 C   0  0  0  0  0  0  0  0  0  0  0  0
    6.7530   -1.2290   27.9540 C   0  0  0  0  0  0  0  0  0  0  0  0
    7.8880   -1.4020   28.7100 C   0  0  0  0  0  0  0  0  0  0  0  0
    7.9970   -0.9520   29.9900 C   0  0  0  0  0  0  0  0  0  0  0  0
    6.9820   -0.3050   30.6120 C   0  0  0  0  0  0  0  0  0  0  0  0
    5.6670   -0.0380   29.9250 C   0  0  0  0  0  0  0  0  0  0  0  0
    5.6210   -0.5730   28.4720 C   0  0  0  0  0  0  0  0  0  0  0  0
    4.3500   -0.3590   27.6720 C   0  0  0  0  0  0  0  0  0  0  0  0
    3.3710    0.3470   28.2780 F   0  0  0  0  0  0  0  0  0  0  0  0
    4.5870    0.3590   26.5040 F   0  0  0  0  0  0  0  0  0  0  0  0
    3.8540   -1.6090   27.3550 F   0  0  0  0  0  0  0  0  0  0  0  0
    5.9190   -5.0680   23.4820 C   0  0  0  0  0  0  0  0  0  0  0  0
    6.6590   -5.3910   22.3620 C   0  0  0  0  0  0  0  0  0  0  0  0
  1  2  1  0
  2  3  2  0
  2  4  1  0
  4  5  1  0
  5  6  1  0
  6  7  1  0
  7  8  1  0
  8  9  2  0
  8 10  1  0
 10 11  1  0
 11 12  1  0
 10 13  1  0
 13 14  1  0
 14 15  2  0
 15 16  1  0
 16 17  2  0
 17 18  1  0
 14 19  1  0
 18 19  2  0
 19 20  1  0
 20 21  1  0
 20 22  1  0
 20 23  1  0
  7 24  1  0
  4 25  1  0
 24 25  1  0
M  END
