piperidine-amides-20567-covalent
     RDKit          3D

 21 23  0  0  0  0  0  0  0  0999 V2000
    7.1420   -3.3260   19.2330 C   0  0  0  0  0  0  0  0  0  0  0  0
    6.3760   -4.0950   20.2150 C   0  0  0  0  0  0  0  0  0  0  0  0
    5.2910   -4.6310   19.9130 O   0  0  0  0  0  0  0  0  0  0  0  0
    6.9110   -4.2890   21.4860 N   0  0  0  0  0  0  0  0  0  0  0  0
    6.5830   -5.4810   22.2170 C   0  0  0  0  0  0  0  0  0  0  0  0
    5.7400   -4.9960   23.3910 C   0  0  0  0  0  0  0  0  0  0  0  0
    6.6460   -4.0860   24.1860 C   0  0  0  0  0  0  0  0  0  0  0  0
    5.8550   -3.4900   25.2600 C   0  0  0  0  0  0  0  0  0  0  0  0
    4.8250   -2.8500   24.9610 O   0  0  0  0  0  0  0  0  0  0  0  0
    6.2580   -3.6590   26.5890 N   0  0  0  0  0  0  0  0  0  0  0  0
    5.9200   -4.9170   27.2110 C   0  0  0  0  0  0  0  0  0  0  0  0
    4.7390   -4.6040   27.9890 C   0  0  1  0  0  0  0  0  0  0  0  0
    3.4810   -4.5650   27.4540 C   0  0  0  0  0  0  0  0  0  0  0  0
    4.6930   -5.2780   29.3400 C   0  0  0  0  0  0  0  0  0  0  0  0
    3.5400   -4.1140   30.0630 S   0  0  0  0  0  0  0  0  0  0  0  0
    4.2490   -2.7190   29.3170 C   0  0  0  0  0  0  0  0  0  0  0  0
    5.1930   -3.3080   28.5330 C   0  0  1  0  0  0  0  0  0  0  0  0
    6.6420   -3.0090   28.7990 C   0  0  0  0  0  0  0  0  0  0  0  0
    6.0850   -2.6200   27.5780 C   0  0  0  0  0  0  0  0  0  0  0  0
    7.2630   -2.9590   23.4680 C   0  0  0  0  0  0  0  0  0  0  0  0
    7.6580   -3.2540   22.1080 C   0  0  0  0  0  0  0  0  0  0  0  0
  1  2  1  0
  2  3  2  0
  2  4  1  0
  4  5  1  0
  5  6  1  0
  6  7  1  0
  7  8  1  0
  8  9  2  0
  8 10  1  0
 10 11  1  0
 11 12  1  0
 12 13  1  6
 12 14  1  0
 14 15  1  0
 15 16  1  0
 12 17  1  0
 16 17  1  0
 17 18  1  1
 10 19  1  0
 17 19  1  0
  7 20  1  0
  4 21  1  0
 20 21  1  0
M  END
