piperidine-amides-831-covalent
     RDKit          3D

 25 26  0  0  0  0  0  0  0  0999 V2000
    7.1010   -3.2860   19.3950 C   0  0  0  0  0  0  0  0  0  0  0  0
    6.3620   -4.0730   20.3610 C   0  0  0  0  0  0  0  0  0  0  0  0
    5.3680   -4.7550   19.9540 O   0  0  0  0  0  0  0  0  0  0  0  0
    6.7160   -4.1490   21.7270 N   0  0  0  0  0  0  0  0  0  0  0  0
    6.5190   -5.5020   22.3130 C   0  0  0  0  0  0  0  0  0  0  0  0
    6.6460   -5.2090   23.8510 C   0  0  0  0  0  0  0  0  0  0  0  0
    6.2860   -3.7560   24.0120 C   0  0  0  0  0  0  0  0  0  0  0  0
    5.4440   -3.4780   25.3390 C   0  0  0  0  0  0  0  0  0  0  0  0
    4.4110   -4.1200   25.2810 O   0  0  0  0  0  0  0  0  0  0  0  0
    6.0000   -2.6560   26.1520 N   0  0  0  0  0  0  0  0  0  0  0  0
    6.3560   -1.7580   27.1170 C   0  0  0  0  0  0  0  0  0  0  0  0
    7.0420   -1.7150   28.3320 C   0  0  0  0  0  0  0  0  0  0  0  0
    7.2720   -0.6190   29.1880 C   0  0  0  0  0  0  0  0  0  0  0  0
    6.7960    0.7200   28.9220 C   0  0  0  0  0  0  0  0  0  0  0  0
    7.2010    1.7070   30.0390 C   0  0  0  0  0  0  0  0  0  0  0  0
    6.8950    3.0860   30.0140 O   0  0  0  0  0  0  0  0  0  0  0  0
    7.9340    1.0330   31.1130 N   0  0  0  0  0  0  0  0  0  0  0  0
    9.2000    1.6220   31.4190 C   0  0  2  0  0  0  0  0  0  0  0  0
   10.2900    0.7260   31.4770 C   0  0  0  0  0  0  0  0  0  0  0  0
    9.6670    1.3070   32.8140 C   0  0  0  0  0  0  0  0  0  0  0  0
    8.5400    0.4010   33.4420 C   0  0  0  0  0  0  0  0  0  0  0  0
    6.0370    0.7340   27.6070 C   0  0  0  0  0  0  0  0  0  0  0  0
    5.8240   -0.3450   26.7790 C   0  0  0  0  0  0  0  0  0  0  0  0
    7.3900   -2.8220   23.5960 C   0  0  0  0  0  0  0  0  0  0  0  0
    7.6870   -3.2110   22.3000 C   0  0  0  0  0  0  0  0  0  0  0  0
  1  2  1  0
  2  3  2  0
  2  4  1  0
  4  5  1  0
  5  6  1  0
  6  7  1  0
  7  8  1  0
  8  9  2  0
  8 10  1  0
 10 11  1  0
 11 12  2  0
 12 13  1  0
 13 14  2  0
 14 15  1  0
 15 16  2  0
 15 17  1  0
 17 18  1  0
 18 19  1  6
 18 20  1  0
 20 21  1  0
 14 22  1  0
 11 23  1  0
 22 23  2  0
  7 24  1  0
  4 25  1  0
 24 25  1  0
M  END
