piperidine-amides-27602-covalent
     RDKit          3D

 26 28  0  0  0  0  0  0  0  0999 V2000
    7.0240   -3.3490   19.3790 C   0  0  0  0  0  0  0  0  0  0  0  0
    6.3800   -4.1870   20.3950 C   0  0  0  0  0  0  0  0  0  0  0  0
    5.4030   -4.8780   19.9950 O   0  0  0  0  0  0  0  0  0  0  0  0
    6.8640   -4.2360   21.7160 N   0  0  0  0  0  0  0  0  0  0  0  0
    7.6960   -3.1710   22.2770 C   0  0  0  0  0  0  0  0  0  0  0  0
    7.4140   -2.9910   23.7550 C   0  0  0  0  0  0  0  0  0  0  0  0
    6.1210   -3.6500   24.1430 C   0  0  0  0  0  0  0  0  0  0  0  0
    5.6420   -3.3520   25.5320 C   0  0  0  0  0  0  0  0  0  0  0  0
    4.4000   -3.4180   25.6750 O   0  0  0  0  0  0  0  0  0  0  0  0
    6.3930   -2.9820   26.6960 N   0  0  0  0  0  0  0  0  0  0  0  0
    6.3160   -3.8680   27.8580 C   0  0  0  0  0  0  0  0  0  0  0  0
    6.0860   -5.3460   27.5170 C   0  0  0  0  0  0  0  0  0  0  0  0
    4.9200   -6.0300   27.7500 C   0  0  0  0  0  0  0  0  0  0  0  0
    5.0320   -7.3440   28.2840 O   0  0  0  0  0  0  0  0  0  0  0  0
    6.3410   -1.5690   27.1090 C   0  0  0  0  0  0  0  0  0  0  0  0
    6.6660   -1.0630   28.3820 N   0  0  0  0  0  0  0  0  0  0  0  0
    6.6480    0.2440   28.9390 C   0  0  0  0  0  0  0  0  0  0  0  0
    6.2030    1.2930   28.0120 N   0  0  0  0  0  0  0  0  0  0  0  0
    5.9570    0.5410   26.8690 C   0  0  0  0  0  0  0  0  0  0  0  0
    6.3350   -0.8750   27.3450 C   0  0  0  0  0  0  0  0  0  0  0  0
    6.8510   -1.2140   28.7800 C   0  0  0  0  0  0  0  0  0  0  0  0
    6.6780    0.1270   28.9350 C   0  0  0  0  0  0  0  0  0  0  0  0
    6.1930    0.3770   27.5390 C   0  0  0  0  0  0  0  0  0  0  0  0
    5.9390   -0.6030   26.2620 C   0  0  0  0  0  0  0  0  0  0  0  0
    6.1460   -5.1090   23.8670 C   0  0  0  0  0  0  0  0  0  0  0  0
    6.6590   -5.4380   22.4810 C   0  0  0  0  0  0  0  0  0  0  0  0
  1  2  1  0
  2  3  2  0
  2  4  1  0
  4  5  1  0
  5  6  1  0
  6  7  1  0
  7  8  1  0
  8  9  2  0
  8 10  1  0
 10 11  1  0
 11 12  1  0
 12 13  1  0
 13 14  1  0
 10 15  1  0
 15 16  2  0
 16 17  1  0
 17 18  2  0
 18 19  1  0
 19 20  1  0
 20 21  2  0
 21 22  1  0
 22 23  2  0
 15 24  1  0
 19 24  2  0
 23 24  1  0
  7 25  1  0
  4 26  1  0
 25 26  1  0
M  END
