piperidine-amides-2939-covalent
     RDKit          3D

 24 26  0  0  0  0  0  0  0  0999 V2000
    7.1000   -3.3460   19.3430 C   0  0  0  0  0  0  0  0  0  0  0  0
    6.3550   -4.1450   20.3000 C   0  0  0  0  0  0  0  0  0  0  0  0
    5.3370   -4.7410   19.9530 O   0  0  0  0  0  0  0  0  0  0  0  0
    6.8490   -4.2800   21.6380 N   0  0  0  0  0  0  0  0  0  0  0  0
    7.6560   -3.2350   22.2120 C   0  0  0  0  0  0  0  0  0  0  0  0
    6.9870   -2.6920   23.4350 C   0  0  0  0  0  0  0  0  0  0  0  0
    6.4790   -3.8690   24.2410 C   0  0  0  0  0  0  0  0  0  0  0  0
    5.7450   -3.3760   25.4450 C   0  0  0  0  0  0  0  0  0  0  0  0
    4.4970   -3.2770   25.5120 O   0  0  0  0  0  0  0  0  0  0  0  0
    6.5130   -3.0130   26.5760 N   0  0  0  0  0  0  0  0  0  0  0  0
    6.4320   -1.6780   27.1370 C   0  0  0  0  0  0  0  0  0  0  0  0
    6.9950   -1.5960   28.5130 C   0  0  0  0  0  0  0  0  0  0  0  0
    6.9890   -0.4000   29.1830 C   0  0  0  0  0  0  0  0  0  0  0  0
    6.4470    0.7440   28.5590 C   0  0  0  0  0  0  0  0  0  0  0  0
    5.9120    0.7140   27.2710 C   0  0  0  0  0  0  0  0  0  0  0  0
    5.3710    1.9390   26.6850 C   0  0  0  0  0  0  0  0  0  0  0  0
    6.4570    2.7210   26.5630 N   0  0  0  0  0  0  0  0  0  0  0  0
    7.3740    3.3730   27.4770 C   0  0  0  0  0  0  0  0  0  0  0  0
    8.2680    4.0170   26.7280 C   0  0  0  0  0  0  0  0  0  0  0  0
    7.9460    3.7930   25.4280 C   0  0  0  0  0  0  0  0  0  0  0  0
    6.8480    3.0100   25.2770 N   0  0  0  0  0  0  0  0  0  0  0  0
    5.9170   -0.4990   26.5890 C   0  0  0  0  0  0  0  0  0  0  0  0
    5.6430   -4.8530   23.4310 C   0  0  0  0  0  0  0  0  0  0  0  0
    6.4760   -5.3940   22.4580 C   0  0  0  0  0  0  0  0  0  0  0  0
  1  2  1  0
  2  3  2  0
  2  4  1  0
  4  5  1  0
  5  6  1  0
  6  7  1  0
  7  8  1  0
  8  9  2  0
  8 10  1  0
 10 11  1  0
 11 12  2  0
 12 13  1  0
 13 14  2  0
 14 15  1  0
 15 16  1  0
 16 17  1  0
 17 18  1  0
 18 19  2  0
 19 20  1  0
 17 21  1  0
 20 21  2  0
 11 22  1  0
 15 22  2  0
  7 23  1  0
  4 24  1  0
 23 24  1  0
M  END
