piperidine-amides-23466-covalent
     RDKit          3D

 24 27  0  0  0  0  0  0  0  0999 V2000
    7.1030   -3.2830   19.2170 C   0  0  0  0  0  0  0  0  0  0  0  0
    6.3760   -4.0370   20.2530 C   0  0  0  0  0  0  0  0  0  0  0  0
    5.2970   -4.5700   19.8990 O   0  0  0  0  0  0  0  0  0  0  0  0
    6.8990   -4.2030   21.5620 N   0  0  0  0  0  0  0  0  0  0  0  0
    6.4170   -5.2640   22.3610 C   0  0  0  0  0  0  0  0  0  0  0  0
    6.3860   -4.9850   23.8000 C   0  0  0  0  0  0  0  0  0  0  0  0
    6.7590   -3.6170   24.2670 C   0  0  0  0  0  0  0  0  0  0  0  0
    5.8630   -3.2070   25.4050 C   0  0  0  0  0  0  0  0  0  0  0  0
    4.7270   -3.7170   25.4810 O   0  0  0  0  0  0  0  0  0  0  0  0
    6.2210   -2.2520   26.3900 N   0  0  0  0  0  0  0  0  0  0  0  0
    5.7030   -0.9790   26.4320 C   0  0  0  0  0  0  0  0  0  0  0  0
    5.1300   -1.2940   27.6850 C   0  0  0  0  0  0  0  0  0  0  0  0
    5.7630   -0.6130   28.9220 C   0  0  0  0  0  0  0  0  0  0  0  0
    7.0740   -0.7850   29.2470 C   0  0  0  0  0  0  0  0  0  0  0  0
    6.9680    0.0930   30.4150 C   0  0  0  0  0  0  0  0  0  0  0  0
    5.6220    0.5440   30.4670 N   0  0  0  0  0  0  0  0  0  0  0  0
    4.7300    0.1190   29.5000 N   0  0  0  0  0  0  0  0  0  0  0  0
    5.4170    1.4440   31.6200 C   0  0  0  0  0  0  0  0  0  0  0  0
    6.1040    0.4540   32.5730 C   0  0  0  0  0  0  0  0  0  0  0  0
    7.6060    0.5000   32.7250 C   0  0  0  0  0  0  0  0  0  0  0  0
    8.1200    0.3820   31.2960 C   0  0  0  0  0  0  0  0  0  0  0  0
    5.8760   -2.6530   27.7890 C   0  0  0  0  0  0  0  0  0  0  0  0
    6.7550   -2.6090   23.1620 C   0  0  0  0  0  0  0  0  0  0  0  0
    7.6350   -3.1560   22.2340 C   0  0  0  0  0  0  0  0  0  0  0  0
  1  2  1  0
  2  3  2  0
  2  4  1  0
  4  5  1  0
  5  6  1  0
  6  7  1  0
  7  8  1  0
  8  9  2  0
  8 10  1  0
 10 11  1  0
 11 12  1  0
 12 13  1  0
 13 14  1  0
 14 15  2  0
 15 16  1  0
 13 17  2  0
 16 17  1  0
 16 18  1  0
 18 19  1  0
 19 20  1  0
 15 21  1  0
 20 21  1  0
 10 22  1  0
 12 22  1  0
  7 23  1  0
  4 24  1  0
 23 24  1  0
M  END
