piperidine-amides-8783-covalent
     RDKit          3D

 23 24  0  0  0  0  0  0  0  0999 V2000
    7.1130   -3.2790   19.2270 C   0  0  0  0  0  0  0  0  0  0  0  0
    6.3660   -4.0570   20.2120 C   0  0  0  0  0  0  0  0  0  0  0  0
    5.2710   -4.5370   19.8750 O   0  0  0  0  0  0  0  0  0  0  0  0
    6.9180   -4.3060   21.4910 N   0  0  0  0  0  0  0  0  0  0  0  0
    7.6780   -3.2620   22.1180 C   0  0  0  0  0  0  0  0  0  0  0  0
    6.9470   -2.7750   23.3270 C   0  0  0  0  0  0  0  0  0  0  0  0
    6.7640   -3.9640   24.2430 C   0  0  0  0  0  0  0  0  0  0  0  0
    6.2430   -3.4900   25.5560 C   0  0  0  0  0  0  0  0  0  0  0  0
    5.0150   -3.3930   25.6630 O   0  0  0  0  0  0  0  0  0  0  0  0
    7.1920   -3.1970   26.5340 N   0  0  0  0  0  0  0  0  0  0  0  0
    6.8490   -2.6430   27.7990 C   0  0  0  0  0  0  0  0  0  0  0  0
    6.2000   -1.3840   27.7290 C   0  0  0  0  0  0  0  0  0  0  0  0
    5.6200   -1.2380   26.4010 N   0  0  0  0  0  0  0  0  0  0  0  0
    4.8890   -0.1910   25.8350 C   0  0  0  0  0  0  0  0  0  0  0  0
    4.6560    0.9070   26.6340 C   0  0  0  0  0  0  0  0  0  0  0  0
    5.2100    0.8720   28.0360 C   0  0  0  0  0  0  0  0  0  0  0  0
    6.0260   -0.3270   28.6350 C   0  0  0  0  0  0  0  0  0  0  0  0
    6.4960   -0.1950   30.0360 C   0  0  0  0  0  0  0  0  0  0  0  0
    7.7340   -0.8150   30.1030 F   0  0  0  0  0  0  0  0  0  0  0  0
    6.5780    1.1290   30.3650 F   0  0  0  0  0  0  0  0  0  0  0  0
    5.5500   -0.8370   30.8330 F   0  0  0  0  0  0  0  0  0  0  0  0
    5.9100   -5.0000   23.6080 C   0  0  0  0  0  0  0  0  0  0  0  0
    6.4120   -5.4380   22.2210 C   0  0  0  0  0  0  0  0  0  0  0  0
  1  2  1  0
  2  3  2  0
  2  4  1  0
  4  5  1  0
  5  6  1  0
  6  7  1  0
  7  8  1  0
  8  9  2  0
  8 10  1  0
 10 11  1  0
 11 12  1  0
 12 13  2  0
 13 14  1  0
 14 15  2  0
 15 16  1  0
 12 17  1  0
 16 17  2  0
 17 18  1  0
 18 19  1  0
 18 20  1  0
 18 21  1  0
  7 22  1  0
  4 23  1  0
 22 23  1  0
M  END
