piperidine-amides-28143-covalent
     RDKit          3D

 25 26  0  0  0  0  0  0  0  0999 V2000
    7.0670   -3.2920   19.2330 C   0  0  0  0  0  0  0  0  0  0  0  0
    6.3650   -4.0660   20.2850 C   0  0  0  0  0  0  0  0  0  0  0  0
    5.3130   -4.6230   19.9200 O   0  0  0  0  0  0  0  0  0  0  0  0
    6.8760   -4.2120   21.5900 N   0  0  0  0  0  0  0  0  0  0  0  0
    7.6350   -3.1700   22.2270 C   0  0  0  0  0  0  0  0  0  0  0  0
    7.2400   -2.8920   23.6160 C   0  0  0  0  0  0  0  0  0  0  0  0
    6.0300   -3.6330   24.0320 C   0  0  0  0  0  0  0  0  0  0  0  0
    5.5770   -3.3570   25.4310 C   0  0  0  0  0  0  0  0  0  0  0  0
    4.3590   -3.4820   25.6440 O   0  0  0  0  0  0  0  0  0  0  0  0
    6.4170   -2.9480   26.4970 N   0  0  0  0  0  0  0  0  0  0  0  0
    6.7440   -1.5030   26.6170 C   0  0  0  0  0  0  0  0  0  0  0  0
    6.4050   -0.8910   27.9420 C   0  0  0  0  0  0  0  0  0  0  0  0
    5.2700   -0.0180   28.1570 C   0  0  0  0  0  0  0  0  0  0  0  0
    5.0630    0.4850   29.4120 C   0  0  0  0  0  0  0  0  0  0  0  0
    5.8910    0.1930   30.4780 C   0  0  0  0  0  0  0  0  0  0  0  0
    5.5890    0.7470   31.6790 F   0  0  0  0  0  0  0  0  0  0  0  0
    6.9760   -0.6310   30.3170 C   0  0  0  0  0  0  0  0  0  0  0  0
    7.3120   -1.2090   29.1220 C   0  0  0  0  0  0  0  0  0  0  0  0
    6.2820   -3.6110   27.8390 C   0  0  0  0  0  0  0  0  0  0  0  0
    5.9250   -4.9640   27.7470 C   0  0  0  0  0  0  0  0  0  0  0  0
    5.9050   -5.4020   26.4860 F   0  0  0  0  0  0  0  0  0  0  0  0
    6.7420   -5.7470   28.5430 F   0  0  0  0  0  0  0  0  0  0  0  0
    4.6620   -5.2210   28.2060 F   0  0  0  0  0  0  0  0  0  0  0  0
    6.0660   -5.0880   23.7310 C   0  0  0  0  0  0  0  0  0  0  0  0
    6.6540   -5.4180   22.3790 C   0  0  0  0  0  0  0  0  0  0  0  0
  1  2  1  0
  2  3  2  0
  2  4  1  0
  4  5  1  0
  5  6  1  0
  6  7  1  0
  7  8  1  0
  8  9  2  0
  8 10  1  0
 10 11  1  0
 11 12  1  0
 12 13  2  0
 13 14  1  0
 14 15  2  0
 15 16  1  0
 15 17  1  0
 12 18  1  0
 17 18  2  0
 10 19  1  0
 19 20  1  0
 20 21  1  0
 20 22  1  0
 20 23  1  0
  7 24  1  0
  4 25  1  0
 24 25  1  0
M  END
