piperidine-amides-18804-covalent
     RDKit          3D

 21 22  0  0  0  0  0  0  0  0999 V2000
    7.0820   -3.4230   19.3230 C   0  0  0  0  0  0  0  0  0  0  0  0
    6.4490   -4.2240   20.3400 C   0  0  0  0  0  0  0  0  0  0  0  0
    5.4070   -4.8680   20.0020 O   0  0  0  0  0  0  0  0  0  0  0  0
    6.9890   -4.3530   21.6390 N   0  0  0  0  0  0  0  0  0  0  0  0
    6.6820   -5.5830   22.3960 C   0  0  0  0  0  0  0  0  0  0  0  0
    5.7060   -5.0020   23.4970 C   0  0  0  0  0  0  0  0  0  0  0  0
    6.3820   -3.8040   24.1530 C   0  0  0  0  0  0  0  0  0  0  0  0
    5.4680   -3.3760   25.3840 C   0  0  0  0  0  0  0  0  0  0  0  0
    4.5160   -2.7270   24.9880 O   0  0  0  0  0  0  0  0  0  0  0  0
    5.9710   -3.8200   26.4520 N   0  0  0  0  0  0  0  0  0  0  0  0
    6.8190   -4.3050   27.3510 C   0  0  0  0  0  0  0  0  0  0  0  0
    6.6720   -5.1590   28.3380 C   0  0  2  0  0  0  0  0  0  0  0  0
    6.7800   -6.4840   27.9430 O   0  0  0  0  0  0  0  0  0  0  0  0
    5.3320   -4.9050   28.5260 C   0  0  0  0  0  0  0  0  0  0  0  0
    4.9650   -3.7880   27.5910 C   0  0  2  0  0  0  0  0  0  0  0  0
    3.6850   -4.5260   27.1520 C   0  0  0  0  0  0  0  0  0  0  0  0
    2.5670   -3.6820   27.5580 N   0  0  0  0  0  0  0  0  0  0  0  0
    2.0700   -3.9600   28.8630 C   0  0  0  0  0  0  0  0  0  0  0  0
    2.0310   -2.6400   26.6930 C   0  0  0  0  0  0  0  0  0  0  0  0
    6.8450   -2.7430   23.3070 C   0  0  0  0  0  0  0  0  0  0  0  0
    7.7980   -3.4090   22.2870 C   0  0  0  0  0  0  0  0  0  0  0  0
  1  2  1  0
  2  3  2  0
  2  4  1  0
  4  5  1  0
  5  6  1  0
  6  7  1  0
  7  8  1  0
  8  9  2  0
  8 10  1  0
 10 11  1  0
 11 12  1  0
 12 13  1  6
 12 14  1  0
 10 15  1  0
 14 15  1  0
 15 16  1  6
 16 17  1  0
 17 18  1  0
 17 19  1  0
  7 20  1  0
  4 21  1  0
 20 21  1  0
M  END
