piperidine-amides-33703-covalent
     RDKit          3D

 28 31  0  0  0  0  0  0  0  0999 V2000
    7.0760   -3.3390   19.3570 C   0  0  0  0  0  0  0  0  0  0  0  0
    6.4290   -4.1880   20.3760 C   0  0  0  0  0  0  0  0  0  0  0  0
    5.4140   -4.8300   19.9890 O   0  0  0  0  0  0  0  0  0  0  0  0
    6.9460   -4.3210   21.7040 N   0  0  0  0  0  0  0  0  0  0  0  0
    7.7380   -3.2570   22.2520 C   0  0  0  0  0  0  0  0  0  0  0  0
    7.3670   -2.9320   23.6160 C   0  0  0  0  0  0  0  0  0  0  0  0
    6.1180   -3.6120   23.9510 C   0  0  0  0  0  0  0  0  0  0  0  0
    5.4990   -3.2260   25.2680 C   0  0  0  0  0  0  0  0  0  0  0  0
    4.2670   -3.0500   25.2640 O   0  0  0  0  0  0  0  0  0  0  0  0
    6.1510   -3.0360   26.5070 N   0  0  0  0  0  0  0  0  0  0  0  0
    6.2680   -1.7500   27.1030 C   0  0  0  0  0  0  0  0  0  0  0  0
    5.8310   -0.5110   26.5440 C   0  0  0  0  0  0  0  0  0  0  0  0
    5.9700    0.8350   27.2870 C   0  0  0  0  0  0  0  0  0  0  0  0
    6.5540    0.8820   28.5780 C   0  0  0  0  0  0  0  0  0  0  0  0
    6.7510    2.3500   29.5070 Cl  0  0  0  0  0  0  0  0  0  0  0  0
    7.0450   -0.4730   29.1940 C   0  0  0  0  0  0  0  0  0  0  0  0
    6.8750   -1.7240   28.4200 C   0  0  0  0  0  0  0  0  0  0  0  0
    5.5940   -3.8810   27.5280 C   0  0  0  0  0  0  0  0  0  0  0  0
    6.1340   -5.1120   28.0560 N   0  0  0  0  0  0  0  0  0  0  0  0
    5.3550   -5.7050   29.0740 C   0  0  0  0  0  0  0  0  0  0  0  0
    5.6590   -6.9860   29.8370 C   0  0  0  0  0  0  0  0  0  0  0  0
    4.6580   -7.4350   30.9190 C   0  0  0  0  0  0  0  0  0  0  0  0
    3.4880   -6.5320   31.0710 C   0  0  0  0  0  0  0  0  0  0  0  0
    3.2740   -5.3780   30.3350 C   0  0  0  0  0  0  0  0  0  0  0  0
    4.1980   -5.0140   29.3880 C   0  0  0  0  0  0  0  0  0  0  0  0
    4.1390   -3.6170   28.3720 S   0  0  0  0  0  0  0  0  0  0  0  0
    6.2380   -5.0940   23.7910 C   0  0  0  0  0  0  0  0  0  0  0  0
    6.6780   -5.4950   22.5200 C   0  0  0  0  0  0  0  0  0  0  0  0
  1  2  1  0
  2  3  2  0
  2  4  1  0
  4  5  1  0
  5  6  1  0
  6  7  1  0
  7  8  1  0
  8  9  2  0
  8 10  1  0
 10 11  1  0
 11 12  2  0
 12 13  1  0
 13 14  2  0
 14 15  1  0
 14 16  1  0
 11 17  1  0
 16 17  2  0
 10 18  1  0
 18 19  2  0
 19 20  1  0
 20 21  2  0
 21 22  1  0
 22 23  2  0
 23 24  1  0
 20 25  1  0
 24 25  2  0
 18 26  1  0
 25 26  1  0
  7 27  1  0
  4 28  1  0
 27 28  1  0
M  END
