piperidine-amides-11803-covalent
     RDKit          3D

 28 30  0  0  0  0  0  0  0  0999 V2000
    7.0790   -3.3000   19.2200 C   0  0  0  0  0  0  0  0  0  0  0  0
    6.3450   -4.0540   20.2330 C   0  0  0  0  0  0  0  0  0  0  0  0
    5.3080   -4.6380   19.9230 O   0  0  0  0  0  0  0  0  0  0  0  0
    6.8530   -4.1620   21.5720 N   0  0  0  0  0  0  0  0  0  0  0  0
    7.7460   -3.1440   22.0930 C   0  0  0  0  0  0  0  0  0  0  0  0
    7.5250   -2.9490   23.5580 C   0  0  0  0  0  0  0  0  0  0  0  0
    6.1450   -3.4870   23.8420 C   0  0  0  0  0  0  0  0  0  0  0  0
    5.6510   -3.0200   25.1540 C   0  0  0  0  0  0  0  0  0  0  0  0
    4.5570   -2.4390   25.2770 O   0  0  0  0  0  0  0  0  0  0  0  0
    6.4240   -3.2400   26.3080 N   0  0  0  0  0  0  0  0  0  0  0  0
    5.6830   -3.6960   27.4410 C   0  0  2  0  0  0  0  0  0  0  0  0
    6.6320   -3.9590   28.5650 C   0  0  0  0  0  0  0  0  0  0  0  0
    5.8770   -4.2430   29.6650 O   0  0  0  0  0  0  0  0  0  0  0  0
    5.2040   -5.4080   29.7870 C   0  0  0  0  0  0  0  0  0  0  0  0
    3.9710   -5.3390   30.4990 C   0  0  0  0  0  0  0  0  0  0  0  0
    3.2170   -6.4850   30.6660 C   0  0  0  0  0  0  0  0  0  0  0  0
    3.7350   -7.6920   30.1000 C   0  0  0  0  0  0  0  0  0  0  0  0
    4.9010   -7.7400   29.4290 C   0  0  0  0  0  0  0  0  0  0  0  0
    5.6530   -6.6180   29.2610 C   0  0  0  0  0  0  0  0  0  0  0  0
    4.6840   -4.6060   27.2840 C   0  0  0  0  0  0  0  0  0  0  0  0
    3.2620   -4.4130   27.6580 C   0  0  0  0  0  0  0  0  0  0  0  0
    2.1860   -5.2900   27.5260 C   0  0  0  0  0  0  0  0  0  0  0  0
    2.3460   -6.5510   26.9790 C   0  0  0  0  0  0  0  0  0  0  0  0
    1.2630   -7.4050   26.8540 F   0  0  0  0  0  0  0  0  0  0  0  0
    3.7270   -6.8730   26.5620 C   0  0  0  0  0  0  0  0  0  0  0  0
    4.8810   -5.8820   26.7260 C   0  0  0  0  0  0  0  0  0  0  0  0
    6.0990   -4.9710   23.6490 C   0  0  0  0  0  0  0  0  0  0  0  0
    6.6430   -5.3860   22.3210 C   0  0  0  0  0  0  0  0  0  0  0  0
  1  2  1  0
  2  3  2  0
  2  4  1  0
  4  5  1  0
  5  6  1  0
  6  7  1  0
  7  8  1  0
  8  9  2  0
  8 10  1  0
 10 11  1  0
 11 12  1  1
 12 13  1  0
 13 14  1  0
 14 15  2  0
 15 16  1  0
 16 17  2  0
 17 18  1  0
 14 19  1  0
 18 19  2  0
 11 20  1  0
 20 21  2  0
 21 22  1  0
 22 23  2  0
 23 24  1  0
 23 25  1  0
 20 26  1  0
 25 26  2  0
  7 27  1  0
  4 28  1  0
 27 28  1  0
M  END
