piperidine-amides-17087-covalent
     RDKit          3D

 20 22  0  0  0  0  0  0  0  0999 V2000
    7.2250   -3.3380   19.2140 C   0  0  0  0  0  0  0  0  0  0  0  0
    6.4250   -4.0660   20.1950 C   0  0  0  0  0  0  0  0  0  0  0  0
    5.2920   -4.4890   19.8660 O   0  0  0  0  0  0  0  0  0  0  0  0
    7.0100   -4.3280   21.4400 N   0  0  0  0  0  0  0  0  0  0  0  0
    6.5740   -5.4700   22.1590 C   0  0  0  0  0  0  0  0  0  0  0  0
    5.8150   -5.0950   23.3260 C   0  0  0  0  0  0  0  0  0  0  0  0
    5.8840   -3.6500   23.5940 C   0  0  0  0  0  0  0  0  0  0  0  0
    5.3440   -3.3870   24.9210 C   0  0  0  0  0  0  0  0  0  0  0  0
    4.2440   -2.8300   25.0800 O   0  0  0  0  0  0  0  0  0  0  0  0
    6.0830   -3.7800   25.9950 N   0  0  0  0  0  0  0  0  0  0  0  0
    7.3430   -4.4470   26.0160 C   0  0  0  0  0  0  0  0  0  0  0  0
    7.8110   -4.7370   27.3340 C   0  0  2  0  0  0  0  0  0  0  0  0
    7.1170   -5.8150   28.1110 C   0  0  0  0  0  0  0  0  0  0  0  0
    6.4100   -5.0330   29.0350 C   0  0  0  0  0  0  0  0  0  0  0  0
    6.7850   -3.8750   28.0810 C   0  0  1  0  0  0  0  0  0  0  0  0
    7.2460   -2.6490   28.7870 C   0  0  0  0  0  0  0  0  0  0  0  0
    6.3510   -2.2900   29.8000 F   0  0  0  0  0  0  0  0  0  0  0  0
    5.6040   -3.4600   27.2640 C   0  0  0  0  0  0  0  0  0  0  0  0
    7.2590   -3.0430   23.4790 C   0  0  0  0  0  0  0  0  0  0  0  0
    7.7510   -3.2600   22.0820 C   0  0  0  0  0  0  0  0  0  0  0  0
  1  2  1  0
  2  3  2  0
  2  4  1  0
  4  5  1  0
  5  6  1  0
  6  7  1  0
  7  8  1  0
  8  9  2  0
  8 10  1  0
 10 11  1  0
 12 11  1  6
 12 13  1  0
 13 14  1  0
 12 15  1  0
 14 15  1  0
 15 16  1  1
 16 17  1  0
 10 18  1  0
 15 18  1  0
  7 19  1  0
  4 20  1  0
 19 20  1  0
M  END
