piperidine-amides-750-covalent
     RDKit          3D

 25 27  0  0  0  0  0  0  0  0999 V2000
    7.1760   -3.2800   19.3250 C   0  0  0  0  0  0  0  0  0  0  0  0
    6.4220   -4.0580   20.2830 C   0  0  0  0  0  0  0  0  0  0  0  0
    5.3310   -4.5890   19.9060 O   0  0  0  0  0  0  0  0  0  0  0  0
    6.8820   -4.2710   21.5970 N   0  0  0  0  0  0  0  0  0  0  0  0
    7.7900   -3.2540   22.1830 C   0  0  0  0  0  0  0  0  0  0  0  0
    6.8350   -2.6540   23.2710 C   0  0  0  0  0  0  0  0  0  0  0  0
    6.4970   -3.8450   24.1180 C   0  0  0  0  0  0  0  0  0  0  0  0
    5.8620   -3.3860   25.5020 C   0  0  0  0  0  0  0  0  0  0  0  0
    5.3410   -4.3140   26.0910 O   0  0  0  0  0  0  0  0  0  0  0  0
    6.0500   -2.1390   25.6210 N   0  0  0  0  0  0  0  0  0  0  0  0
    6.1380   -0.7870   25.7160 C   0  0  0  0  0  0  0  0  0  0  0  0
    6.4800    0.3520   25.0150 C   0  0  2  0  0  0  0  0  0  0  0  0
    5.6460    0.6720   23.9150 C   0  0  0  0  0  0  0  0  0  0  0  0
    4.3590   -0.0480   23.8660 C   0  0  0  0  0  0  0  0  0  0  0  0
    7.8290    0.4420   24.5280 O   0  0  0  0  0  0  0  0  0  0  0  0
    8.1140    1.6070   23.7410 C   0  0  0  0  0  0  0  0  0  0  0  0
    8.0830    2.7440   24.5870 C   0  0  0  0  0  0  0  0  0  0  0  0
    7.1830    2.5110   25.5850 C   0  0  0  0  0  0  0  0  0  0  0  0
    7.3760    3.8360   26.2550 C   0  0  0  0  0  0  0  0  0  0  0  0
    6.4300    3.8720   27.5010 C   0  0  0  0  0  0  0  0  0  0  0  0
    5.6260    2.7590   27.7660 C   0  0  0  0  0  0  0  0  0  0  0  0
    5.6030    1.5980   26.9920 C   0  0  0  0  0  0  0  0  0  0  0  0
    6.4150    1.5330   25.9010 C   0  0  0  0  0  0  0  0  0  0  0  0
    5.7420   -4.9520   23.4520 C   0  0  0  0  0  0  0  0  0  0  0  0
    6.5010   -5.4160   22.3760 C   0  0  0  0  0  0  0  0  0  0  0  0
  1  2  1  0
  2  3  2  0
  2  4  1  0
  4  5  1  0
  5  6  1  0
  6  7  1  0
  7  8  1  0
  8  9  2  0
  8 10  1  0
 10 11  1  0
 12 11  1  1
 12 13  1  0
 13 14  1  0
 12 15  1  0
 15 16  1  0
 16 17  1  0
 17 18  1  0
 18 19  2  0
 19 20  1  0
 20 21  2  0
 21 22  1  0
 12 23  1  0
 18 23  1  0
 22 23  2  0
  7 24  1  0
  4 25  1  0
 24 25  1  0
M  END
