piperidine-amides-1363-covalent
     RDKit          3D

 22 23  0  0  0  0  0  0  0  0999 V2000
    7.1460   -3.2550   19.1660 C   0  0  0  0  0  0  0  0  0  0  0  0
    6.3650   -3.9980   20.1880 C   0  0  0  0  0  0  0  0  0  0  0  0
    5.2820   -4.5160   19.8710 O   0  0  0  0  0  0  0  0  0  0  0  0
    6.9120   -4.1440   21.4760 N   0  0  0  0  0  0  0  0  0  0  0  0
    7.7420   -3.1250   22.0710 C   0  0  0  0  0  0  0  0  0  0  0  0
    6.9480   -2.5660   23.2400 C   0  0  0  0  0  0  0  0  0  0  0  0
    6.5680   -3.7460   24.0600 C   0  0  0  0  0  0  0  0  0  0  0  0
    5.8050   -3.3700   25.2550 C   0  0  0  0  0  0  0  0  0  0  0  0
    4.9870   -2.4470   25.1580 O   0  0  0  0  0  0  0  0  0  0  0  0
    6.0340   -4.0900   26.4120 N   0  0  0  0  0  0  0  0  0  0  0  0
    6.1120   -3.6250   27.7340 C   0  0  0  0  0  0  0  0  0  0  0  0
    5.3310   -4.1550   28.7000 C   0  0  1  0  0  0  0  0  0  0  0  0
    3.9500   -3.9170   28.5980 C   0  0  0  0  0  0  0  0  0  0  0  0
    3.1490   -4.8820   28.0060 O   0  0  0  0  0  0  0  0  0  0  0  0
    5.6360   -5.6070   28.9390 C   0  0  0  0  0  0  0  0  0  0  0  0
    4.5290   -6.2710   29.6780 C   0  0  0  0  0  0  0  0  0  0  0  0
    4.8670   -7.6520   30.2500 C   0  0  0  0  0  0  0  0  0  0  0  0
    4.4670   -7.4880   31.7110 C   0  0  0  0  0  0  0  0  0  0  0  0
    3.8860   -6.2690   31.9050 C   0  0  0  0  0  0  0  0  0  0  0  0
    3.8880   -5.5030   30.6430 C   0  0  0  0  0  0  0  0  0  0  0  0
    5.8150   -4.8380   23.3610 C   0  0  0  0  0  0  0  0  0  0  0  0
    6.5550   -5.2600   22.2930 C   0  0  0  0  0  0  0  0  0  0  0  0
  1  2  1  0
  2  3  2  0
  2  4  1  0
  4  5  1  0
  5  6  1  0
  6  7  1  0
  7  8  1  0
  8  9  2  0
  8 10  1  0
 10 11  1  0
 12 11  1  6
 12 13  1  0
 13 14  1  0
 12 15  1  0
 15 16  1  0
 16 17  1  0
 17 18  1  0
 18 19  1  0
 16 20  1  0
 19 20  1  0
  7 21  1  0
  4 22  1  0
 21 22  1  0
M  END
