piperidine-amides-13211-covalent
     RDKit          3D

 19 19  0  0  0  0  0  0  0  0999 V2000
    7.0660   -3.2770   19.2280 C   0  0  0  0  0  0  0  0  0  0  0  0
    6.3230   -4.0650   20.2430 C   0  0  0  0  0  0  0  0  0  0  0  0
    5.2520   -4.5800   19.8790 O   0  0  0  0  0  0  0  0  0  0  0  0
    6.8270   -4.2570   21.5330 N   0  0  0  0  0  0  0  0  0  0  0  0
    7.5470   -3.2090   22.1560 C   0  0  0  0  0  0  0  0  0  0  0  0
    7.2780   -3.1710   23.5740 C   0  0  0  0  0  0  0  0  0  0  0  0
    5.9660   -3.6930   23.9570 C   0  0  0  0  0  0  0  0  0  0  0  0
    5.7580   -3.5330   25.4270 C   0  0  0  0  0  0  0  0  0  0  0  0
    4.7080   -2.9600   25.7840 O   0  0  0  0  0  0  0  0  0  0  0  0
    6.6840   -3.9830   26.4080 N   0  0  0  0  0  0  0  0  0  0  0  0
    6.7930   -5.4180   26.7970 C   0  0  1  0  0  0  0  0  0  0  0  0
    7.7350   -5.7140   27.9230 C   0  0  0  0  0  0  0  0  0  0  0  0
    8.9610   -6.0010   27.7720 O   0  0  0  0  0  0  0  0  0  0  0  0
    9.4050   -6.3480   26.5860 C   0  0  0  0  0  0  0  0  0  0  0  0
    5.4760   -5.7400   27.2550 C   0  0  0  0  0  0  0  0  0  0  0  0
    5.2750   -7.0190   27.7830 N   0  0  0  0  0  0  0  0  0  0  0  0
    4.4730   -4.8290   27.1710 O   0  0  0  0  0  0  0  0  0  0  0  0
    5.7460   -5.1010   23.4680 C   0  0  0  0  0  0  0  0  0  0  0  0
    6.3710   -5.3910   22.2800 C   0  0  0  0  0  0  0  0  0  0  0  0
  1  2  1  0
  2  3  2  0
  2  4  1  0
  4  5  1  0
  5  6  1  0
  6  7  1  0
  7  8  1  0
  8  9  2  0
  8 10  1  0
 10 11  1  0
 11 12  1  1
 12 13  1  0
 13 14  1  0
 11 15  1  0
 15 16  1  0
 15 17  2  0
  7 18  1  0
  4 19  1  0
 18 19  1  0
M  END
