piperidine-amides-29426-covalent
     RDKit          3D

 22 24  0  0  0  0  0  0  0  0999 V2000
    7.0750   -3.3450   19.3070 C   0  0  0  0  0  0  0  0  0  0  0  0
    6.3960   -4.1930   20.2810 C   0  0  0  0  0  0  0  0  0  0  0  0
    5.3410   -4.7550   19.9500 O   0  0  0  0  0  0  0  0  0  0  0  0
    6.9790   -4.4050   21.5490 N   0  0  0  0  0  0  0  0  0  0  0  0
    6.4030   -5.4260   22.3600 C   0  0  0  0  0  0  0  0  0  0  0  0
    5.5220   -4.7390   23.3620 C   0  0  0  0  0  0  0  0  0  0  0  0
    6.4300   -4.0520   24.3620 C   0  0  0  0  0  0  0  0  0  0  0  0
    5.6300   -3.2240   25.3230 C   0  0  0  0  0  0  0  0  0  0  0  0
    5.0740   -2.2470   24.8400 O   0  0  0  0  0  0  0  0  0  0  0  0
    5.5210   -3.5890   26.6640 N   0  0  0  0  0  0  0  0  0  0  0  0
    4.2820   -3.8970   27.1910 C   0  0  0  0  0  0  0  0  0  0  0  0
    4.3510   -4.0600   28.5710 C   0  0  0  0  0  0  0  0  0  0  0  0
    5.5080   -4.9610   28.7870 N   0  0  0  0  0  0  0  0  0  0  0  0
    5.5330   -6.3860   29.4930 C   0  0  0  0  0  0  0  0  0  0  0  0
    4.5160   -7.1490   30.0710 C   0  0  0  0  0  0  0  0  0  0  0  0
    6.8200   -6.7290   29.4230 N   0  0  0  0  0  0  0  0  0  0  0  0
    6.3410   -5.6380   28.9630 C   0  0  0  0  0  0  0  0  0  0  0  0
    4.4500   -5.4700   29.2130 Br  0  0  0  0  0  0  0  0  0  0  0  0
    6.8080   -4.5250   28.3130 C   0  0  0  0  0  0  0  0  0  0  0  0
    6.3940   -3.2280   27.7220 C   0  0  0  0  0  0  0  0  0  0  0  0
    7.5030   -3.2520   23.6970 C   0  0  0  0  0  0  0  0  0  0  0  0
    7.6260   -3.2850   22.1670 C   0  0  0  0  0  0  0  0  0  0  0  0
  1  2  1  0
  2  3  2  0
  2  4  1  0
  4  5  1  0
  5  6  1  0
  6  7  1  0
  7  8  1  0
  8  9  2  0
  8 10  1  0
 10 11  1  0
 11 12  1  0
 12 13  1  0
 13 14  1  0
 14 15  1  0
 14 16  2  0
 16 17  1  0
 17 18  1  0
 13 19  1  0
 17 19  2  0
 10 20  1  0
 19 20  1  0
  7 21  1  0
  4 22  1  0
 21 22  1  0
M  END
