piperidine-amides-6611-covalent
     RDKit          3D

 24 25  0  0  0  0  0  0  0  0999 V2000
    7.0610   -3.3210   19.3410 C   0  0  0  0  0  0  0  0  0  0  0  0
    6.3860   -4.1730   20.3310 C   0  0  0  0  0  0  0  0  0  0  0  0
    5.4060   -4.8720   19.9910 O   0  0  0  0  0  0  0  0  0  0  0  0
    6.8600   -4.2370   21.6530 N   0  0  0  0  0  0  0  0  0  0  0  0
    7.6910   -3.1510   22.1390 C   0  0  0  0  0  0  0  0  0  0  0  0
    7.4940   -3.0660   23.6520 C   0  0  0  0  0  0  0  0  0  0  0  0
    6.0940   -3.5660   23.8990 C   0  0  0  0  0  0  0  0  0  0  0  0
    5.6620   -3.2220   25.2690 C   0  0  0  0  0  0  0  0  0  0  0  0
    4.4510   -3.3140   25.5520 O   0  0  0  0  0  0  0  0  0  0  0  0
    6.6280   -2.8000   26.2020 N   0  0  0  0  0  0  0  0  0  0  0  0
    6.4560   -1.5840   26.9540 C   0  0  0  0  0  0  0  0  0  0  0  0
    7.0110   -1.6330   28.3550 C   0  0  0  0  0  0  0  0  0  0  0  0
    6.9300   -0.5630   29.1970 C   0  0  0  0  0  0  0  0  0  0  0  0
    6.3220    0.6070   28.7780 C   0  0  0  0  0  0  0  0  0  0  0  0
    6.1920    1.7360   29.5700 O   0  0  0  0  0  0  0  0  0  0  0  0
    6.2980    1.5870   30.9780 C   0  0  0  0  0  0  0  0  0  0  0  0
    5.4850    0.5400   31.3680 C   0  0  0  0  0  0  0  0  0  0  0  0
    4.3910    0.0560   30.4410 C   0  0  0  0  0  0  0  0  0  0  0  0
    5.7870    0.7400   27.5180 C   0  0  0  0  0  0  0  0  0  0  0  0
    5.2340    1.8410   27.1810 O   0  0  0  0  0  0  0  0  0  0  0  0
    3.8790    1.8380   26.7850 C   0  0  0  0  0  0  0  0  0  0  0  0
    5.8590   -0.4220   26.5460 C   0  0  0  0  0  0  0  0  0  0  0  0
    6.0820   -5.0540   23.6990 C   0  0  0  0  0  0  0  0  0  0  0  0
    6.5450   -5.3790   22.4520 C   0  0  0  0  0  0  0  0  0  0  0  0
  1  2  1  0
  2  3  2  0
  2  4  1  0
  4  5  1  0
  5  6  1  0
  6  7  1  0
  7  8  1  0
  8  9  2  0
  8 10  1  0
 10 11  1  0
 11 12  2  0
 12 13  1  0
 13 14  2  0
 14 15  1  0
 15 16  1  0
 16 17  1  0
 17 18  1  0
 14 19  1  0
 19 20  1  0
 20 21  1  0
 11 22  1  0
 19 22  2  0
  7 23  1  0
  4 24  1  0
 23 24  1  0
M  END
