piperidine-amides-13267-covalent
     RDKit          3D

 17 17  0  0  0  0  0  0  0  0999 V2000
    7.0570   -3.3180   19.2730 C   0  0  0  0  0  0  0  0  0  0  0  0
    6.3650   -4.1180   20.3110 C   0  0  0  0  0  0  0  0  0  0  0  0
    5.3200   -4.6900   19.9390 O   0  0  0  0  0  0  0  0  0  0  0  0
    6.8800   -4.2660   21.6140 N   0  0  0  0  0  0  0  0  0  0  0  0
    6.5270   -5.4220   22.3730 C   0  0  0  0  0  0  0  0  0  0  0  0
    5.9870   -5.0860   23.6910 C   0  0  0  0  0  0  0  0  0  0  0  0
    5.9910   -3.6310   23.9590 C   0  0  0  0  0  0  0  0  0  0  0  0
    5.5830   -3.3310   25.3650 C   0  0  0  0  0  0  0  0  0  0  0  0
    4.3940   -3.0180   25.5550 O   0  0  0  0  0  0  0  0  0  0  0  0
    6.4750   -3.3760   26.4580 N   0  0  0  0  0  0  0  0  0  0  0  0
    6.2000   -4.0840   27.7430 C   0  0  0  0  0  0  0  0  0  0  0  0
    5.9710   -5.5660   27.6130 C   0  0  1  0  0  0  0  0  0  0  0  0
    5.5110   -6.2420   28.8210 C   0  0  0  0  0  0  0  0  0  0  0  0
    5.4080   -6.0250   26.5780 O   0  0  0  0  0  0  0  0  0  0  0  0
    4.2670   -6.8250   26.4790 C   0  0  0  0  0  0  0  0  0  0  0  0
    7.2720   -2.9750   23.5330 C   0  0  0  0  0  0  0  0  0  0  0  0
    7.5690   -3.1470   22.2080 C   0  0  0  0  0  0  0  0  0  0  0  0
  1  2  1  0
  2  3  2  0
  2  4  1  0
  4  5  1  0
  5  6  1  0
  6  7  1  0
  7  8  1  0
  8  9  2  0
  8 10  1  0
 10 11  1  0
 11 12  1  0
 12 13  1  1
 12 14  1  0
 14 15  1  0
  7 16  1  0
  4 17  1  0
 16 17  1  0
M  END
