piperidine-amides-30365-covalent
     RDKit          3D

 27 28  0  0  0  0  0  0  0  0999 V2000
    7.0790   -3.3620   19.4090 C   0  0  0  0  0  0  0  0  0  0  0  0
    6.3610   -4.1840   20.3770 C   0  0  0  0  0  0  0  0  0  0  0  0
    5.4000   -4.8580   19.9970 O   0  0  0  0  0  0  0  0  0  0  0  0
    6.7990   -4.2430   21.7520 N   0  0  0  0  0  0  0  0  0  0  0  0
    7.7310   -3.2480   22.2460 C   0  0  0  0  0  0  0  0  0  0  0  0
    7.4950   -2.9880   23.7060 C   0  0  0  0  0  0  0  0  0  0  0  0
    6.1560   -3.6260   24.0100 C   0  0  0  0  0  0  0  0  0  0  0  0
    5.5490   -3.2490   25.3330 C   0  0  0  0  0  0  0  0  0  0  0  0
    4.3120   -3.1880   25.4470 O   0  0  0  0  0  0  0  0  0  0  0  0
    6.3150   -2.9830   26.5130 N   0  0  0  0  0  0  0  0  0  0  0  0
    6.2410   -4.0820   27.4570 C   0  0  0  0  0  0  0  0  0  0  0  0
    6.3340   -1.6440   27.1310 C   0  0  0  0  0  0  0  0  0  0  0  0
    6.9660   -1.5910   28.3810 C   0  0  0  0  0  0  0  0  0  0  0  0
    7.0790   -0.4370   29.1370 C   0  0  0  0  0  0  0  0  0  0  0  0
    6.5530    0.6940   28.6390 C   0  0  0  0  0  0  0  0  0  0  0  0
    6.5370    2.0250   29.2430 C   0  0  0  0  0  0  0  0  0  0  0  0
    6.7900    3.0400   28.5140 O   0  0  0  0  0  0  0  0  0  0  0  0
    6.2560    2.1910   30.5800 O   0  0  0  0  0  0  0  0  0  0  0  0
    5.0410    1.9020   31.2100 C   0  0  0  0  0  0  0  0  0  0  0  0
    4.8100    0.5510   31.0430 C   0  0  0  0  0  0  0  0  0  0  0  0
    5.8930    0.6410   27.3240 C   0  0  0  0  0  0  0  0  0  0  0  0
    5.7230   -0.5430   26.4490 C   0  0  0  0  0  0  0  0  0  0  0  0
    5.3420   -1.0480   25.4820 N   0  0  0  0  0  0  0  0  0  0  0  0
    3.9890   -1.2730   25.5050 O   0  0  0  0  0  0  0  0  0  0  0  0
    5.8290   -0.7810   24.2680 O   0  0  0  0  0  0  0  0  0  0  0  0
    6.1730   -5.1350   23.7990 C   0  0  0  0  0  0  0  0  0  0  0  0
    6.6250   -5.4600   22.5110 C   0  0  0  0  0  0  0  0  0  0  0  0
  1  2  1  0
  2  3  2  0
  2  4  1  0
  4  5  1  0
  5  6  1  0
  6  7  1  0
  7  8  1  0
  8  9  2  0
  8 10  1  0
 10 11  1  0
 10 12  1  0
 12 13  2  0
 13 14  1  0
 14 15  2  0
 15 16  1  0
 16 17  2  0
 16 18  1  0
 18 19  1  0
 19 20  1  0
 15 21  1  0
 12 22  1  0
 21 22  2  0
 22 23  1  0
 23 24  2  0
 23 25  1  0
  7 26  1  0
  4 27  1  0
 26 27  1  0
M  CHG  2  23   1  25  -1
M  END
