piperidine-amides-27102-covalent
     RDKit          3D

 25 27  0  0  0  0  0  0  0  0999 V2000
    6.9820   -3.3720   19.3770 C   0  0  0  0  0  0  0  0  0  0  0  0
    6.3300   -4.2430   20.3640 C   0  0  0  0  0  0  0  0  0  0  0  0
    5.3250   -4.8820   19.9720 O   0  0  0  0  0  0  0  0  0  0  0  0
    6.8390   -4.3720   21.6570 N   0  0  0  0  0  0  0  0  0  0  0  0
    6.6990   -5.6150   22.3890 C   0  0  0  0  0  0  0  0  0  0  0  0
    6.0300   -5.3060   23.6990 C   0  0  0  0  0  0  0  0  0  0  0  0
    5.9790   -3.8230   23.8980 C   0  0  0  0  0  0  0  0  0  0  0  0
    5.5430   -3.4330   25.2740 C   0  0  0  0  0  0  0  0  0  0  0  0
    4.4170   -2.8990   25.3500 O   0  0  0  0  0  0  0  0  0  0  0  0
    6.2510   -3.5880   26.4970 N   0  0  0  0  0  0  0  0  0  0  0  0
    6.8930   -4.8700   26.8450 C   0  0  0  0  0  0  0  0  0  0  0  0
    7.0570   -5.3120   28.3170 C   0  0  2  0  0  0  0  0  0  0  0  0
    6.4650   -6.4930   28.7000 C   0  0  0  0  0  0  0  0  0  0  0  0
    5.6380   -6.5570   29.8130 C   0  0  0  0  0  0  0  0  0  0  0  0
    6.2990   -6.5700   30.9430 O   0  0  0  0  0  0  0  0  0  0  0  0
    4.2650   -6.6420   29.8050 O   0  0  0  0  0  0  0  0  0  0  0  0
    3.6300   -7.7060   29.1550 C   0  0  0  0  0  0  0  0  0  0  0  0
    6.5600   -4.4410   29.2200 O   0  0  0  0  0  0  0  0  0  0  0  0
    5.5530   -3.8000   28.6420 C   0  0  0  0  0  0  0  0  0  0  0  0
    4.5890   -3.3070   29.4550 C   0  0  0  0  0  0  0  0  0  0  0  0
    3.5020   -4.0860   28.8220 C   0  0  0  0  0  0  0  0  0  0  0  0
    4.5990   -4.6880   27.8970 C   0  0  0  0  0  0  0  0  0  0  0  0
    6.1840   -2.9440   27.8070 C   0  0  0  0  0  0  0  0  0  0  0  0
    7.3120   -3.2370   23.6140 C   0  0  0  0  0  0  0  0  0  0  0  0
    7.6220   -3.2930   22.2750 C   0  0  0  0  0  0  0  0  0  0  0  0
  1  2  1  0
  2  3  2  0
  2  4  1  0
  4  5  1  0
  5  6  1  0
  6  7  1  0
  7  8  1  0
  8  9  2  0
  8 10  1  0
 10 11  1  0
 11 12  1  0
 12 13  1  6
 13 14  1  0
 14 15  2  0
 14 16  1  0
 16 17  1  0
 12 18  1  0
 19 18  1  0
 19 20  1  0
 20 21  1  0
 19 22  1  0
 21 22  1  0
 10 23  1  0
 19 23  1  0
  7 24  1  0
  4 25  1  0
 24 25  1  0
M  END
