piperidine-amides-30680-covalent
     RDKit          3D

 27 29  0  0  0  0  0  0  0  0999 V2000
    7.1070   -3.3900   19.3730 C   0  0  0  0  0  0  0  0  0  0  0  0
    6.3980   -4.2210   20.3360 C   0  0  0  0  0  0  0  0  0  0  0  0
    5.3650   -4.8140   19.9790 O   0  0  0  0  0  0  0  0  0  0  0  0
    6.9060   -4.4100   21.6290 N   0  0  0  0  0  0  0  0  0  0  0  0
    7.6950   -3.3700   22.2820 C   0  0  0  0  0  0  0  0  0  0  0  0
    7.1560   -3.2410   23.6800 C   0  0  0  0  0  0  0  0  0  0  0  0
    5.7950   -3.8040   23.7330 C   0  0  0  0  0  0  0  0  0  0  0  0
    4.9830   -3.4310   24.9230 C   0  0  0  0  0  0  0  0  0  0  0  0
    3.9000   -2.8230   24.7380 O   0  0  0  0  0  0  0  0  0  0  0  0
    5.2580   -3.7020   26.2660 N   0  0  0  0  0  0  0  0  0  0  0  0
    4.4550   -4.6770   27.0070 C   0  0  0  0  0  0  0  0  0  0  0  0
    5.5220   -5.4320   27.6490 C   0  0  0  0  0  0  0  0  0  0  0  0
    6.7200   -4.6120   27.5540 C   0  0  2  0  0  0  0  0  0  0  0  0
    7.0250   -4.2580   28.9450 C   0  0  0  0  0  0  0  0  0  0  0  0
    6.7440   -2.7450   29.0010 C   0  0  0  0  0  0  0  0  0  0  0  0
    6.2050   -2.4570   27.6650 C   0  0  1  0  0  0  0  0  0  0  0  0
    6.5630   -1.1390   27.1840 N   0  0  0  0  0  0  0  0  0  0  0  0
    5.8570   -0.1540   27.7900 C   0  0  0  0  0  0  0  0  0  0  0  0
    5.8300   -0.0180   29.0600 O   0  0  0  0  0  0  0  0  0  0  0  0
    5.2480    0.6080   27.0150 O   0  0  0  0  0  0  0  0  0  0  0  0
    4.1170    0.1000   26.4020 C   0  0  0  0  0  0  0  0  0  0  0  0
    3.3200   -0.9910   27.0870 C   0  0  0  0  0  0  0  0  0  0  0  0
    3.1930    1.2640   26.2390 C   0  0  0  0  0  0  0  0  0  0  0  0
    4.4300   -0.3080   24.9970 C   0  0  0  0  0  0  0  0  0  0  0  0
    6.5470   -3.4460   26.7770 C   0  0  2  0  0  0  0  0  0  0  0  0
    5.7800   -5.2490   23.4910 C   0  0  0  0  0  0  0  0  0  0  0  0
    6.5590   -5.5720   22.4020 C   0  0  0  0  0  0  0  0  0  0  0  0
  1  2  1  0
  2  3  2  0
  2  4  1  0
  4  5  1  0
  5  6  1  0
  6  7  1  0
  7  8  1  0
  8  9  2  0
  8 10  1  0
 10 11  1  0
 11 12  1  0
 13 12  1  1
 13 14  1  0
 14 15  1  0
 15 16  1  0
 16 17  1  6
 17 18  1  0
 18 19  2  0
 18 20  1  0
 21 20  1  0
 21 22  1  0
 21 23  1  0
 21 24  1  0
 25 10  1  6
 13 25  1  0
 16 25  1  0
  7 26  1  0
  4 27  1  0
 26 27  1  0
M  END
