piperidine-amides-30830-covalent
     RDKit          3D

 23 25  0  0  0  0  0  0  0  0999 V2000
    7.0470   -3.3620   19.3410 C   0  0  0  0  0  0  0  0  0  0  0  0
    6.3880   -4.1970   20.3490 C   0  0  0  0  0  0  0  0  0  0  0  0
    5.4080   -4.8810   19.9960 O   0  0  0  0  0  0  0  0  0  0  0  0
    6.8600   -4.2800   21.6770 N   0  0  0  0  0  0  0  0  0  0  0  0
    6.6870   -5.4250   22.5340 C   0  0  0  0  0  0  0  0  0  0  0  0
    6.0100   -4.9370   23.8050 C   0  0  0  0  0  0  0  0  0  0  0  0
    6.5090   -3.6060   24.3370 C   0  0  0  0  0  0  0  0  0  0  0  0
    5.6110   -3.0630   25.4120 C   0  0  0  0  0  0  0  0  0  0  0  0
    4.5250   -2.5310   25.0570 O   0  0  0  0  0  0  0  0  0  0  0  0
    5.8390   -3.1000   26.8310 N   0  0  0  0  0  0  0  0  0  0  0  0
    4.6660   -3.0290   27.6750 C   0  0  0  0  0  0  0  0  0  0  0  0
    4.4900   -4.4710   28.0100 C   0  0  0  0  0  0  0  0  0  0  0  0
    3.4910   -5.1990   27.6860 O   0  0  0  0  0  0  0  0  0  0  0  0
    5.5650   -4.9610   28.7150 N   0  0  0  0  0  0  0  0  0  0  0  0
    6.8650   -5.2100   28.1870 C   0  0  0  0  0  0  0  0  0  0  0  0
    6.7970   -6.3110   29.2220 C   0  0  0  0  0  0  0  0  0  0  0  0
    5.4150   -5.7760   29.4740 C   0  0  0  0  0  0  0  0  0  0  0  0
    4.3480   -6.6790   30.8060 Br  0  0  0  0  0  0  0  0  0  0  0  0
    4.8440   -4.7430   28.8680 N   0  0  0  0  0  0  0  0  0  0  0  0
    5.4010   -4.0000   27.8990 C   0  0  0  0  0  0  0  0  0  0  0  0
    6.6380   -4.1310   27.3350 C   0  0  0  0  0  0  0  0  0  0  0  0
    6.6650   -2.5840   23.2450 C   0  0  0  0  0  0  0  0  0  0  0  0
    7.6220   -3.1850   22.2440 C   0  0  0  0  0  0  0  0  0  0  0  0
  1  2  1  0
  2  3  2  0
  2  4  1  0
  4  5  1  0
  5  6  1  0
  6  7  1  0
  7  8  1  0
  8  9  2  0
  8 10  1  0
 10 11  1  0
 11 12  1  0
 12 13  2  0
 12 14  1  0
 14 15  1  0
 15 16  2  0
 16 17  1  0
 17 18  1  0
 17 19  2  0
 19 20  1  0
 10 21  1  0
 15 21  1  0
 20 21  2  0
  7 22  1  0
  4 23  1  0
 22 23  1  0
M  END
