piperidine-amides-28826-covalent
     RDKit          3D

 26 28  0  0  0  0  0  0  0  0999 V2000
    7.0170   -3.3810   19.4390 C   0  0  0  0  0  0  0  0  0  0  0  0
    6.4030   -4.2840   20.4110 C   0  0  0  0  0  0  0  0  0  0  0  0
    5.4240   -4.9450   20.0110 O   0  0  0  0  0  0  0  0  0  0  0  0
    6.9320   -4.4340   21.7360 N   0  0  0  0  0  0  0  0  0  0  0  0
    6.4470   -5.4940   22.5500 C   0  0  0  0  0  0  0  0  0  0  0  0
    5.4490   -4.9260   23.5310 C   0  0  0  0  0  0  0  0  0  0  0  0
    6.1120   -3.8740   24.4250 C   0  0  0  0  0  0  0  0  0  0  0  0
    5.0680   -3.2950   25.3980 C   0  0  0  0  0  0  0  0  0  0  0  0
    4.0740   -2.8650   24.8380 O   0  0  0  0  0  0  0  0  0  0  0  0
    5.2530   -3.2630   26.8090 N   0  0  0  0  0  0  0  0  0  0  0  0
    6.4930   -3.5460   27.2180 C   0  0  0  0  0  0  0  0  0  0  0  0
    6.3890   -4.9090   27.5700 C   0  0  0  0  0  0  0  0  0  0  0  0
    5.2400   -5.0780   28.1180 C   0  0  2  0  0  0  0  0  0  0  0  0
    5.5400   -4.9670   29.4580 C   0  0  0  0  0  0  0  0  0  0  0  0
    5.6770   -3.6360   29.8360 O   0  0  0  0  0  0  0  0  0  0  0  0
    5.7880   -5.9210   30.2550 O   0  0  0  0  0  0  0  0  0  0  0  0
    4.8130   -6.4990   31.1170 C   0  0  0  0  0  0  0  0  0  0  0  0
    5.5100   -7.4900   32.0720 C   0  0  0  0  0  0  0  0  0  0  0  0
    4.5330   -6.4070   28.1480 C   0  0  0  0  0  0  0  0  0  0  0  0
    3.1660   -6.6090   28.7470 C   0  0  0  0  0  0  0  0  0  0  0  0
    2.7970   -5.4000   29.6790 C   0  0  0  0  0  0  0  0  0  0  0  0
    3.6560   -4.3140   29.8550 C   0  0  0  0  0  0  0  0  0  0  0  0
    3.7950   -3.4210   28.8130 C   0  0  0  0  0  0  0  0  0  0  0  0
    4.3930   -4.0980   27.6620 C   0  0  1  0  0  0  0  0  0  0  0  0
    6.7460   -2.7650   23.5440 C   0  0  0  0  0  0  0  0  0  0  0  0
    7.5970   -3.3800   22.4330 C   0  0  0  0  0  0  0  0  0  0  0  0
  1  2  1  0
  2  3  2  0
  2  4  1  0
  4  5  1  0
  5  6  1  0
  6  7  1  0
  7  8  1  0
  8  9  2  0
  8 10  1  0
 10 11  1  0
 11 12  1  0
 12 13  1  0
 13 14  1  1
 14 15  2  0
 14 16  1  0
 16 17  1  0
 17 18  1  0
 13 19  1  0
 19 20  1  0
 20 21  1  0
 21 22  1  0
 22 23  1  0
 10 24  1  0
 13 24  1  0
 24 23  1  1
  7 25  1  0
  4 26  1  0
 25 26  1  0
M  END
