piperidine-amides-33246-covalent
     RDKit          3D

 29 32  0  0  0  0  0  0  0  0999 V2000
    7.0810   -3.3490   19.3610 C   0  0  0  0  0  0  0  0  0  0  0  0
    6.4340   -4.1950   20.3730 C   0  0  0  0  0  0  0  0  0  0  0  0
    5.4210   -4.8420   19.9930 O   0  0  0  0  0  0  0  0  0  0  0  0
    6.9660   -4.3060   21.6930 N   0  0  0  0  0  0  0  0  0  0  0  0
    6.5900   -5.4190   22.5030 C   0  0  0  0  0  0  0  0  0  0  0  0
    6.0840   -5.0270   23.8200 C   0  0  0  0  0  0  0  0  0  0  0  0
    6.1380   -3.5660   24.0320 C   0  0  0  0  0  0  0  0  0  0  0  0
    5.5960   -3.0900   25.3610 C   0  0  0  0  0  0  0  0  0  0  0  0
    4.3590   -3.0070   25.4580 O   0  0  0  0  0  0  0  0  0  0  0  0
    6.3640   -2.7020   26.4930 N   0  0  0  0  0  0  0  0  0  0  0  0
    6.1980   -3.2890   27.7740 C   0  0  0  0  0  0  0  0  0  0  0  0
    5.8080   -4.6610   28.0170 C   0  0  0  0  0  0  0  0  0  0  0  0
    4.5810   -5.0680   27.2560 C   0  0  0  0  0  0  0  0  0  0  0  0
    4.0380   -6.3030   27.3450 C   0  0  0  0  0  0  0  0  0  0  0  0
    4.7040   -7.3430   28.2740 C   0  0  0  0  0  0  0  0  0  0  0  0
    5.9540   -6.9590   29.0560 C   0  0  0  0  0  0  0  0  0  0  0  0
    6.5250   -5.5380   28.9040 C   0  0  0  0  0  0  0  0  0  0  0  0
    6.7680   -1.3730   26.8390 C   0  0  0  0  0  0  0  0  0  0  0  0
    6.4870   -0.4160   25.8350 N   0  0  0  0  0  0  0  0  0  0  0  0
    6.8810    0.8030   26.2500 C   0  0  0  0  0  0  0  0  0  0  0  0
    6.7860    2.1440   25.5270 C   0  0  0  0  0  0  0  0  0  0  0  0
    6.1860    2.1390   24.1730 C   0  0  0  0  0  0  0  0  0  0  0  0
    7.2640    3.2890   26.1690 C   0  0  0  0  0  0  0  0  0  0  0  0
    7.8360    3.3040   27.4400 C   0  0  0  0  0  0  0  0  0  0  0  0
    7.9350    1.9710   28.1600 C   0  0  0  0  0  0  0  0  0  0  0  0
    7.4580    0.8460   27.5200 C   0  0  0  0  0  0  0  0  0  0  0  0
    7.5350   -0.6770   28.2790 S   0  0  0  0  0  0  0  0  0  0  0  0
    7.5370   -3.1180   23.7330 C   0  0  0  0  0  0  0  0  0  0  0  0
    7.7690   -3.2160   22.2320 C   0  0  0  0  0  0  0  0  0  0  0  0
  1  2  1  0
  2  3  2  0
  2  4  1  0
  4  5  1  0
  5  6  1  0
  6  7  1  0
  7  8  1  0
  8  9  2  0
  8 10  1  0
 10 11  1  0
 11 12  1  0
 12 13  2  0
 13 14  1  0
 14 15  2  0
 15 16  1  0
 12 17  1  0
 16 17  2  0
 10 18  1  0
 18 19  2  0
 19 20  1  0
 20 21  2  0
 21 22  1  0
 21 23  1  0
 23 24  2  0
 24 25  1  0
 20 26  1  0
 25 26  2  0
 18 27  1  0
 26 27  1  0
  7 28  1  0
  4 29  1  0
 28 29  1  0
M  END
