piperidine-amides-18943-covalent
     RDKit          3D

 20 21  0  0  0  0  0  0  0  0999 V2000
    7.0650   -3.3370   19.2410 C   0  0  0  0  0  0  0  0  0  0  0  0
    6.3540   -4.0320   20.2920 C   0  0  0  0  0  0  0  0  0  0  0  0
    5.3300   -4.6990   19.9470 O   0  0  0  0  0  0  0  0  0  0  0  0
    6.7720   -4.0390   21.6420 N   0  0  0  0  0  0  0  0  0  0  0  0
    6.7670   -5.3760   22.2880 C   0  0  0  0  0  0  0  0  0  0  0  0
    5.9060   -5.1020   23.5790 C   0  0  0  0  0  0  0  0  0  0  0  0
    6.2250   -3.6910   24.0100 C   0  0  0  0  0  0  0  0  0  0  0  0
    5.4090   -3.4020   25.3500 C   0  0  0  0  0  0  0  0  0  0  0  0
    4.2770   -3.8360   25.2340 O   0  0  0  0  0  0  0  0  0  0  0  0
    6.1220   -2.7780   26.1980 N   0  0  0  0  0  0  0  0  0  0  0  0
    6.8610   -1.7430   26.6740 C   0  0  0  0  0  0  0  0  0  0  0  0
    6.0040   -3.4920   27.4260 C   0  0  0  0  0  0  0  0  0  0  0  0
    5.4920   -4.8290   27.4560 C   0  0  0  0  0  0  0  0  0  0  0  0
    6.1630   -5.7120   28.4820 C   0  0  0  0  0  0  0  0  0  0  0  0
    5.0410   -6.7700   28.6920 C   0  0  0  0  0  0  0  0  0  0  0  0
    3.9850   -6.8930   27.2830 S   0  0  0  0  0  0  0  0  0  0  0  0
    3.3730   -5.3330   27.2320 C   0  0  0  0  0  0  0  0  0  0  0  0
    4.1120   -4.2700   27.7370 C   0  0  0  0  0  0  0  0  0  0  0  0
    7.5460   -3.2030   23.7670 C   0  0  0  0  0  0  0  0  0  0  0  0
    7.6280   -3.0620   22.2150 C   0  0  0  0  0  0  0  0  0  0  0  0
  1  2  1  0
  2  3  2  0
  2  4  1  0
  4  5  1  0
  5  6  1  0
  6  7  1  0
  7  8  1  0
  8  9  2  0
  8 10  1  0
 10 11  1  0
 10 12  1  0
 12 13  1  0
 13 14  1  0
 14 15  1  0
 15 16  1  0
 16 17  1  0
 13 18  1  0
 17 18  1  0
  7 19  1  0
  4 20  1  0
 19 20  1  0
M  END
