piperidine-amides-5262-covalent
     RDKit          3D

 21 22  0  0  0  0  0  0  0  0999 V2000
    7.1360   -3.2420   19.1700 C   0  0  0  0  0  0  0  0  0  0  0  0
    6.3830   -3.9870   20.2040 C   0  0  0  0  0  0  0  0  0  0  0  0
    5.2900   -4.4760   19.8580 O   0  0  0  0  0  0  0  0  0  0  0  0
    6.9100   -4.1850   21.4910 N   0  0  0  0  0  0  0  0  0  0  0  0
    6.5220   -5.3220   22.2420 C   0  0  0  0  0  0  0  0  0  0  0  0
    6.1170   -5.0140   23.6130 C   0  0  0  0  0  0  0  0  0  0  0  0
    6.7290   -3.8020   24.2100 C   0  0  0  0  0  0  0  0  0  0  0  0
    5.9650   -3.3880   25.4140 C   0  0  0  0  0  0  0  0  0  0  0  0
    4.8750   -2.8040   25.2470 O   0  0  0  0  0  0  0  0  0  0  0  0
    6.4510   -3.6450   26.7130 N   0  0  0  0  0  0  0  0  0  0  0  0
    6.8290   -5.0070   27.1710 C   0  0  0  0  0  0  0  0  0  0  0  0
    5.6570   -5.7610   27.6870 C   0  0  2  0  0  0  0  0  0  0  0  0
    4.3390   -5.1530   27.4830 C   0  0  0  0  0  0  0  0  0  0  0  0
    5.7060   -6.3500   28.7990 O   0  0  0  0  0  0  0  0  0  0  0  0
    4.6820   -6.4880   26.8460 C   0  0  0  0  0  0  0  0  0  0  0  0
    4.6300   -6.2930   25.4720 C   0  0  0  0  0  0  0  0  0  0  0  0
    3.7020   -7.0010   24.7290 C   0  0  0  0  0  0  0  0  0  0  0  0
    2.8110   -8.0190   25.9580 S   0  0  0  0  0  0  0  0  0  0  0  0
    3.7900   -7.3820   27.3560 C   0  0  0  0  0  0  0  0  0  0  0  0
    6.9390   -2.6820   23.2600 C   0  0  0  0  0  0  0  0  0  0  0  0
    7.6580   -3.1420   22.1590 C   0  0  0  0  0  0  0  0  0  0  0  0
  1  2  1  0
  2  3  2  0
  2  4  1  0
  4  5  1  0
  5  6  1  0
  6  7  1  0
  7  8  1  0
  8  9  2  0
  8 10  1  0
 10 11  1  0
 11 12  1  0
 12 13  1  1
 12 14  1  0
 12 15  1  0
 15 16  1  0
 16 17  2  0
 17 18  1  0
 15 19  2  0
 18 19  1  0
  7 20  1  0
  4 21  1  0
 20 21  1  0
M  END
