piperidine-amides-2915-covalent
     RDKit          3D

 24 25  0  0  0  0  0  0  0  0999 V2000
    7.1130   -3.2710   19.2530 C   0  0  0  0  0  0  0  0  0  0  0  0
    6.3750   -4.0340   20.2570 C   0  0  0  0  0  0  0  0  0  0  0  0
    5.3630   -4.6600   19.9330 O   0  0  0  0  0  0  0  0  0  0  0  0
    6.8450   -4.0900   21.6150 N   0  0  0  0  0  0  0  0  0  0  0  0
    6.6370   -5.2960   22.3810 C   0  0  0  0  0  0  0  0  0  0  0  0
    6.1150   -4.9650   23.7540 C   0  0  0  0  0  0  0  0  0  0  0  0
    6.1300   -3.4550   23.8970 C   0  0  0  0  0  0  0  0  0  0  0  0
    5.7110   -2.9980   25.2540 C   0  0  0  0  0  0  0  0  0  0  0  0
    4.7650   -2.2040   25.4040 O   0  0  0  0  0  0  0  0  0  0  0  0
    6.3640   -3.4740   26.4120 N   0  0  0  0  0  0  0  0  0  0  0  0
    5.6540   -4.5100   27.1030 C   0  0  1  0  0  0  0  0  0  0  0  0
    5.8670   -5.8150   26.4010 C   0  0  0  0  0  0  0  0  0  0  0  0
    6.0130   -4.7460   28.5170 C   0  0  0  0  0  0  0  0  0  0  0  0
    5.2500   -5.7370   29.1670 C   0  0  0  0  0  0  0  0  0  0  0  0
    4.6350   -5.3180   30.3120 C   0  0  0  0  0  0  0  0  0  0  0  0
    6.0360   -6.8570   29.3510 C   0  0  0  0  0  0  0  0  0  0  0  0
    4.2600   -6.1850   28.3450 C   0  0  0  0  0  0  0  0  0  0  0  0
    3.2580   -5.2730   28.0400 C   0  0  0  0  0  0  0  0  0  0  0  0
    2.1660   -5.5140   27.2300 C   0  0  0  0  0  0  0  0  0  0  0  0
    2.0660   -6.8340   26.6540 C   0  0  0  0  0  0  0  0  0  0  0  0
    3.0170   -7.7930   26.9100 C   0  0  0  0  0  0  0  0  0  0  0  0
    4.0840   -7.4360   27.7500 C   0  0  0  0  0  0  0  0  0  0  0  0
    7.5030   -2.9280   23.5980 C   0  0  0  0  0  0  0  0  0  0  0  0
    7.7900   -3.1050   22.1070 C   0  0  0  0  0  0  0  0  0  0  0  0
  1  2  1  0
  2  3  2  0
  2  4  1  0
  4  5  1  0
  5  6  1  0
  6  7  1  0
  7  8  1  0
  8  9  2  0
  8 10  1  0
 10 11  1  0
 11 12  1  6
 11 13  1  0
 14 13  1  0
 14 15  1  0
 14 16  1  0
 14 17  1  0
 17 18  2  0
 18 19  1  0
 19 20  2  0
 20 21  1  0
 17 22  1  0
 21 22  2  0
  7 23  1  0
  4 24  1  0
 23 24  1  0
M  END
