piperidine-amides-19047-covalent
     RDKit          3D

 22 24  0  0  0  0  0  0  0  0999 V2000
    7.1130   -3.3620   19.4830 C   0  0  0  0  0  0  0  0  0  0  0  0
    6.4280   -4.2230   20.4220 C   0  0  0  0  0  0  0  0  0  0  0  0
    5.4310   -4.8960   19.9980 O   0  0  0  0  0  0  0  0  0  0  0  0
    6.8440   -4.3730   21.7640 N   0  0  0  0  0  0  0  0  0  0  0  0
    6.4600   -5.5940   22.4940 C   0  0  0  0  0  0  0  0  0  0  0  0
    5.5140   -4.9410   23.5740 C   0  0  0  0  0  0  0  0  0  0  0  0
    6.3800   -3.9370   24.3160 C   0  0  0  0  0  0  0  0  0  0  0  0
    5.5960   -3.2560   25.5440 C   0  0  0  0  0  0  0  0  0  0  0  0
    4.7630   -2.5120   25.0530 O   0  0  0  0  0  0  0  0  0  0  0  0
    5.9510   -3.6010   26.7580 N   0  0  0  0  0  0  0  0  0  0  0  0
    6.4660   -4.1250   27.9330 C   0  0  0  0  0  0  0  0  0  0  0  0
    6.1670   -5.2530   28.5800 C   0  0  0  0  0  0  0  0  0  0  0  0
    6.8130   -6.3840   29.0380 C   0  0  0  0  0  0  0  0  0  0  0  0
    6.0690   -7.4970   29.7610 C   0  0  0  0  0  0  0  0  0  0  0  0
    4.5050   -7.2050   29.9150 C   0  0  0  0  0  0  0  0  0  0  0  0
    4.0970   -5.9760   29.3600 C   0  0  0  0  0  0  0  0  0  0  0  0
    5.0310   -5.1980   28.7760 C   0  0  0  0  0  0  0  0  0  0  0  0
    4.0960   -4.1130   28.3980 C   0  0  1  0  0  0  0  0  0  0  0  0
    3.4220   -3.5050   29.6740 C   0  0  0  0  0  0  0  0  0  0  0  0
    5.0910   -3.0690   27.8620 C   0  0  0  0  0  0  0  0  0  0  0  0
    7.0280   -2.8730   23.4270 C   0  0  0  0  0  0  0  0  0  0  0  0
    7.7280   -3.4220   22.4040 C   0  0  0  0  0  0  0  0  0  0  0  0
  1  2  1  0
  2  3  2  0
  2  4  1  0
  4  5  1  0
  5  6  1  0
  6  7  1  0
  7  8  1  0
  8  9  2  0
  8 10  1  0
 10 11  1  0
 11 12  1  0
 12 13  2  0
 13 14  1  0
 14 15  2  0
 15 16  1  0
 12 17  1  0
 16 17  2  0
 17 18  1  0
 18 19  1  1
 10 20  1  0
 18 20  1  0
  7 21  1  0
  4 22  1  0
 21 22  1  0
M  END
