piperidine-amides-24194-covalent
     RDKit          3D

 24 25  0  0  0  0  0  0  0  0999 V2000
    7.0920   -3.2790   19.2120 C   0  0  0  0  0  0  0  0  0  0  0  0
    6.3750   -4.0580   20.2320 C   0  0  0  0  0  0  0  0  0  0  0  0
    5.3340   -4.6750   19.9310 O   0  0  0  0  0  0  0  0  0  0  0  0
    6.8800   -4.1660   21.5350 N   0  0  0  0  0  0  0  0  0  0  0  0
    6.5730   -5.3300   22.3310 C   0  0  0  0  0  0  0  0  0  0  0  0
    5.7790   -4.8160   23.5360 C   0  0  0  0  0  0  0  0  0  0  0  0
    6.6720   -3.8250   24.2700 C   0  0  0  0  0  0  0  0  0  0  0  0
    5.9430   -3.2310   25.4100 C   0  0  0  0  0  0  0  0  0  0  0  0
    4.7350   -2.9580   25.2430 O   0  0  0  0  0  0  0  0  0  0  0  0
    6.6150   -3.0100   26.6430 N   0  0  0  0  0  0  0  0  0  0  0  0
    7.7250   -3.8590   26.9540 C   0  0  0  0  0  0  0  0  0  0  0  0
    7.2110   -5.2700   27.1920 C   0  0  0  0  0  0  0  0  0  0  0  0
    7.5890   -5.8860   28.3440 C   0  0  0  0  0  0  0  0  0  0  0  0
    6.2650   -3.2110   28.0150 C   0  0  0  0  0  0  0  0  0  0  0  0
    6.1870   -1.9840   28.6770 C   0  0  0  0  0  0  0  0  0  0  0  0
    7.2120   -1.4380   29.3110 C   0  0  0  0  0  0  0  0  0  0  0  0
    7.3560   -0.1710   30.0920 C   0  0  0  0  0  0  0  0  0  0  0  0
    5.8860    0.3210   29.9150 C   0  0  0  0  0  0  0  0  0  0  0  0
    5.7450    1.5070   30.5610 F   0  0  0  0  0  0  0  0  0  0  0  0
    4.5640   -0.1240   29.2370 C   0  0  0  0  0  0  0  0  0  0  0  0
    4.9830   -1.3930   28.6400 C   0  0  0  0  0  0  0  0  0  0  0  0
    3.9130   -1.9950   27.9610 C   0  0  0  0  0  0  0  0  0  0  0  0
    6.9930   -2.6570   23.3430 C   0  0  0  0  0  0  0  0  0  0  0  0
    7.7120   -3.1360   22.1160 C   0  0  0  0  0  0  0  0  0  0  0  0
  1  2  1  0
  2  3  2  0
  2  4  1  0
  4  5  1  0
  5  6  1  0
  6  7  1  0
  7  8  1  0
  8  9  2  0
  8 10  1  0
 10 11  1  0
 11 12  1  0
 12 13  1  0
 10 14  1  0
 14 15  1  0
 15 16  2  0
 16 17  1  0
 17 18  2  0
 18 19  1  0
 18 20  1  0
 15 21  1  0
 20 21  2  0
 21 22  1  0
  7 23  1  0
  4 24  1  0
 23 24  1  0
M  END
