piperidine-amides-10205-covalent
     RDKit          3D

 25 27  0  0  0  0  0  0  0  0999 V2000
    7.0690   -3.3570   19.3520 C   0  0  0  0  0  0  0  0  0  0  0  0
    6.3610   -4.1600   20.3510 C   0  0  0  0  0  0  0  0  0  0  0  0
    5.3220   -4.7450   19.9540 O   0  0  0  0  0  0  0  0  0  0  0  0
    6.8670   -4.2940   21.6520 N   0  0  0  0  0  0  0  0  0  0  0  0
    6.6060   -5.4710   22.4530 C   0  0  0  0  0  0  0  0  0  0  0  0
    6.0210   -5.0470   23.7800 C   0  0  0  0  0  0  0  0  0  0  0  0
    6.0210   -3.5490   23.9550 C   0  0  0  0  0  0  0  0  0  0  0  0
    5.6120   -3.1730   25.3240 C   0  0  0  0  0  0  0  0  0  0  0  0
    4.3910   -3.1290   25.5780 O   0  0  0  0  0  0  0  0  0  0  0  0
    6.5220   -2.8620   26.3460 N   0  0  0  0  0  0  0  0  0  0  0  0
    6.4420   -1.6500   27.1220 C   0  0  0  0  0  0  0  0  0  0  0  0
    7.0350   -1.6150   28.5110 C   0  0  0  0  0  0  0  0  0  0  0  0
    7.0050   -0.5270   29.3070 C   0  0  0  0  0  0  0  0  0  0  0  0
    6.4150    0.6250   28.8730 C   0  0  0  0  0  0  0  0  0  0  0  0
    6.4240    1.6740   29.7300 N   0  0  0  0  0  0  0  0  0  0  0  0
    5.6960    2.7740   29.5980 C   0  0  0  0  0  0  0  0  0  0  0  0
    5.5820    3.4620   30.7940 C   0  0  0  0  0  0  0  0  0  0  0  0
    6.0900    2.8580   31.9550 O   0  0  0  0  0  0  0  0  0  0  0  0
    7.1350    1.9150   31.7890 C   0  0  1  0  0  0  0  0  0  0  0  0
    6.8380    0.5420   32.3490 C   0  0  0  0  0  0  0  0  0  0  0  0
    7.5920    1.8730   30.5040 C   0  0  0  0  0  0  0  0  0  0  0  0
    5.8470    0.6740   27.6070 C   0  0  0  0  0  0  0  0  0  0  0  0
    5.7670   -0.4340   26.5360 C   0  0  0  0  0  0  0  0  0  0  0  0
    7.3290   -2.9390   23.6260 C   0  0  0  0  0  0  0  0  0  0  0  0
    7.6990   -3.2500   22.2010 C   0  0  0  0  0  0  0  0  0  0  0  0
  1  2  1  0
  2  3  2  0
  2  4  1  0
  4  5  1  0
  5  6  1  0
  6  7  1  0
  7  8  1  0
  8  9  2  0
  8 10  1  0
 10 11  1  0
 11 12  2  0
 12 13  1  0
 13 14  2  0
 14 15  1  0
 15 16  1  0
 16 17  1  0
 17 18  1  0
 18 19  1  0
 19 20  1  6
 15 21  1  0
 19 21  1  0
 14 22  1  0
 11 23  1  0
 22 23  2  0
  7 24  1  0
  4 25  1  0
 24 25  1  0
M  END
