piperidine-amides-23768-covalent
     RDKit          3D

 24 26  0  0  0  0  0  0  0  0999 V2000
    7.0920   -3.3410   19.3130 C   0  0  0  0  0  0  0  0  0  0  0  0
    6.4120   -4.1630   20.3240 C   0  0  0  0  0  0  0  0  0  0  0  0
    5.3570   -4.7380   19.9580 O   0  0  0  0  0  0  0  0  0  0  0  0
    6.9470   -4.3530   21.6280 N   0  0  0  0  0  0  0  0  0  0  0  0
    6.5290   -5.4790   22.3730 C   0  0  0  0  0  0  0  0  0  0  0  0
    6.1140   -5.1510   23.7320 C   0  0  0  0  0  0  0  0  0  0  0  0
    6.7470   -3.9540   24.3360 C   0  0  0  0  0  0  0  0  0  0  0  0
    5.8430   -3.3970   25.3990 C   0  0  0  0  0  0  0  0  0  0  0  0
    4.7390   -2.9400   25.0510 O   0  0  0  0  0  0  0  0  0  0  0  0
    6.1580   -3.3660   26.7770 N   0  0  0  0  0  0  0  0  0  0  0  0
    5.2660   -3.5270   27.8410 C   0  0  0  0  0  0  0  0  0  0  0  0
    5.8440   -4.3810   28.8750 C   0  0  1  0  0  0  0  0  0  0  0  0
    4.8300   -5.5070   29.1730 C   0  0  0  0  0  0  0  0  0  0  0  0
    4.2620   -5.8670   30.3620 C   0  0  0  0  0  0  0  0  0  0  0  0
    3.2230   -7.0430   30.3740 C   0  0  0  0  0  0  0  0  0  0  0  0
    2.8790   -7.7490   29.0460 C   0  0  0  0  0  0  0  0  0  0  0  0
    1.9290   -8.7720   29.1830 F   0  0  0  0  0  0  0  0  0  0  0  0
    3.6320   -7.2090   27.8140 C   0  0  0  0  0  0  0  0  0  0  0  0
    4.5940   -6.1040   27.8780 C   0  0  0  0  0  0  0  0  0  0  0  0
    7.1450   -4.9110   28.2420 C   0  0  0  0  0  0  0  0  0  0  0  0
    7.4380   -3.7850   27.2350 C   0  0  2  0  0  0  0  0  0  0  0  0
    8.0450   -2.7350   28.0940 C   0  0  0  0  0  0  0  0  0  0  0  0
    7.0700   -2.8630   23.3550 C   0  0  0  0  0  0  0  0  0  0  0  0
    7.7630   -3.3520   22.2660 C   0  0  0  0  0  0  0  0  0  0  0  0
  1  2  1  0
  2  3  2  0
  2  4  1  0
  4  5  1  0
  5  6  1  0
  6  7  1  0
  7  8  1  0
  8  9  2  0
  8 10  1  0
 10 11  1  0
 11 12  1  0
 12 13  1  6
 13 14  2  0
 14 15  1  0
 15 16  2  0
 16 17  1  0
 16 18  1  0
 13 19  1  0
 18 19  2  0
 12 20  1  0
 10 21  1  0
 20 21  1  0
 21 22  1  1
  7 23  1  0
  4 24  1  0
 23 24  1  0
M  END
