piperidine-amides-19745-covalent
     RDKit          3D

 22 23  0  0  0  0  0  0  0  0999 V2000
    7.0530   -3.2270   19.1480 C   0  0  0  0  0  0  0  0  0  0  0  0
    6.2310   -3.9740   20.1460 C   0  0  0  0  0  0  0  0  0  0  0  0
    5.1580   -4.4300   19.7900 O   0  0  0  0  0  0  0  0  0  0  0  0
    6.7060   -4.1660   21.4240 N   0  0  0  0  0  0  0  0  0  0  0  0
    7.4260   -3.1080   22.0740 C   0  0  0  0  0  0  0  0  0  0  0  0
    6.6630   -2.7010   23.2940 C   0  0  0  0  0  0  0  0  0  0  0  0
    6.4490   -3.9590   24.1280 C   0  0  0  0  0  0  0  0  0  0  0  0
    5.8730   -3.5300   25.4000 C   0  0  0  0  0  0  0  0  0  0  0  0
    4.6480   -3.3800   25.5400 O   0  0  0  0  0  0  0  0  0  0  0  0
    6.7730   -3.2890   26.4410 N   0  0  0  0  0  0  0  0  0  0  0  0
    7.2520   -4.4590   27.1460 C   0  0  0  0  0  0  0  0  0  0  0  0
    6.1380   -5.1430   27.8800 C   0  0  0  0  0  0  0  0  0  0  0  0
    6.4050   -6.1840   28.7290 C   0  0  0  0  0  0  0  0  0  0  0  0
    7.7270   -2.2440   26.2470 C   0  0  0  0  0  0  0  0  0  0  0  0
    8.7310   -2.4670   25.3020 C   0  0  0  0  0  0  0  0  0  0  0  0
    8.9300   -3.1280   23.9700 C   0  0  0  0  0  0  0  0  0  0  0  0
   10.2020   -3.0120   23.4920 N   0  0  0  0  0  0  0  0  0  0  0  0
   10.8910   -2.3330   24.3940 N   0  0  0  0  0  0  0  0  0  0  0  0
   12.2880   -2.0580   24.1640 C   0  0  0  0  0  0  0  0  0  0  0  0
   10.0820   -1.9800   25.4900 C   0  0  0  0  0  0  0  0  0  0  0  0
    5.7250   -5.0270   23.4270 C   0  0  0  0  0  0  0  0  0  0  0  0
    6.3670   -5.3820   22.1270 C   0  0  0  0  0  0  0  0  0  0  0  0
  1  2  1  0
  2  3  2  0
  2  4  1  0
  4  5  1  0
  5  6  1  0
  6  7  1  0
  7  8  1  0
  8  9  2  0
  8 10  1  0
 10 11  1  0
 11 12  1  0
 12 13  1  0
 10 14  1  0
 14 15  1  0
 15 16  1  0
 16 17  2  0
 17 18  1  0
 18 19  1  0
 15 20  2  0
 18 20  1  0
  7 21  1  0
  4 22  1  0
 21 22  1  0
M  END
