piperidine-amides-6632-covalent
     RDKit          3D

 24 25  0  0  0  0  0  0  0  0999 V2000
    7.0350   -3.2840   19.2590 C   0  0  0  0  0  0  0  0  0  0  0  0
    6.3210   -4.0810   20.2740 C   0  0  0  0  0  0  0  0  0  0  0  0
    5.3100   -4.7380   19.9430 O   0  0  0  0  0  0  0  0  0  0  0  0
    6.7610   -4.1650   21.6040 N   0  0  0  0  0  0  0  0  0  0  0  0
    6.5740   -5.4160   22.3100 C   0  0  0  0  0  0  0  0  0  0  0  0
    6.3110   -5.1020   23.7940 C   0  0  0  0  0  0  0  0  0  0  0  0
    5.8970   -3.6490   23.8800 C   0  0  0  0  0  0  0  0  0  0  0  0
    5.2390   -3.3360   25.1860 C   0  0  0  0  0  0  0  0  0  0  0  0
    3.9980   -3.4300   25.2120 O   0  0  0  0  0  0  0  0  0  0  0  0
    5.9380   -2.9230   26.3570 N   0  0  0  0  0  0  0  0  0  0  0  0
    6.3000   -3.8360   27.4180 C   0  0  2  0  0  0  0  0  0  0  0  0
    7.5330   -4.4290   26.9350 C   0  0  0  0  0  0  0  0  0  0  0  0
    8.2100   -5.4860   27.4780 C   0  0  0  0  0  0  0  0  0  0  0  0
    9.3390   -5.9530   26.9120 C   0  0  0  0  0  0  0  0  0  0  0  0
    9.8620   -5.4170   25.7980 C   0  0  0  0  0  0  0  0  0  0  0  0
    9.2920   -4.3850   25.1800 C   0  0  0  0  0  0  0  0  0  0  0  0
    8.0680   -3.7820   25.6890 C   0  0  0  0  0  0  0  0  0  0  0  0
    5.4350   -5.0470   27.5850 C   0  0  0  0  0  0  0  0  0  0  0  0
    3.9510   -5.1160   27.3720 C   0  0  0  0  0  0  0  0  0  0  0  0
    4.7020   -6.0690   26.5350 C   0  0  0  0  0  0  0  0  0  0  0  0
    5.5820   -5.5170   28.9590 C   0  0  0  0  0  0  0  0  0  0  0  0
    6.0590   -6.7650   29.2430 C   0  0  0  0  0  0  0  0  0  0  0  0
    7.0580   -2.7280   23.5530 C   0  0  0  0  0  0  0  0  0  0  0  0
    7.5500   -3.0910   22.1720 C   0  0  0  0  0  0  0  0  0  0  0  0
  1  2  1  0
  2  3  2  0
  2  4  1  0
  4  5  1  0
  5  6  1  0
  6  7  1  0
  7  8  1  0
  8  9  2  0
  8 10  1  0
 11 10  1  6
 11 12  1  0
 12 13  2  0
 13 14  1  0
 14 15  2  0
 15 16  1  0
 12 17  1  0
 16 17  2  0
 11 18  1  0
 18 19  1  0
 19 20  1  0
 18 21  1  0
 21 22  1  0
  7 23  1  0
  4 24  1  0
 23 24  1  0
M  END
