piperidine-amides-14016-covalent
     RDKit          3D

 25 27  0  0  0  0  0  0  0  0999 V2000
    7.0800   -3.3290   19.3200 C   0  0  0  0  0  0  0  0  0  0  0  0
    6.3110   -4.1290   20.3110 C   0  0  0  0  0  0  0  0  0  0  0  0
    5.2810   -4.7110   19.9390 O   0  0  0  0  0  0  0  0  0  0  0  0
    6.8050   -4.2400   21.6280 N   0  0  0  0  0  0  0  0  0  0  0  0
    6.6570   -5.4800   22.3610 C   0  0  0  0  0  0  0  0  0  0  0  0
    6.2000   -5.1640   23.7940 C   0  0  0  0  0  0  0  0  0  0  0  0
    6.2370   -3.6870   23.9960 C   0  0  0  0  0  0  0  0  0  0  0  0
    5.6950   -3.2830   25.3100 C   0  0  0  0  0  0  0  0  0  0  0  0
    4.4880   -3.4780   25.4870 O   0  0  0  0  0  0  0  0  0  0  0  0
    6.5370   -2.7090   26.2650 N   0  0  0  0  0  0  0  0  0  0  0  0
    6.2260   -1.6300   27.1360 C   0  0  1  0  0  0  0  0  0  0  0  0
    7.0570   -1.4220   28.2270 C   0  0  0  0  0  0  0  0  0  0  0  0
    6.7180   -0.5320   29.2490 C   0  0  0  0  0  0  0  0  0  0  0  0
    6.0180    0.5670   28.8460 C   0  0  0  0  0  0  0  0  0  0  0  0
    5.3190    0.4570   27.7030 N   0  0  0  0  0  0  0  0  0  0  0  0
    3.9710    0.3250   27.7210 C   0  0  0  0  0  0  0  0  0  0  0  0
    3.3560   -0.6960   26.7500 C   0  0  0  0  0  0  0  0  0  0  0  0
    1.8490   -0.7750   26.8460 C   0  0  0  0  0  0  0  0  0  0  0  0
    1.1510    0.0020   27.7180 C   0  0  0  0  0  0  0  0  0  0  0  0
    1.6290    0.9070   28.5820 N   0  0  0  0  0  0  0  0  0  0  0  0
    3.0920    1.0350   28.5440 C   0  0  0  0  0  0  0  0  0  0  0  0
    5.8610   -0.2760   26.6240 C   0  0  0  0  0  0  0  0  0  0  0  0
    6.0370    0.1520   25.3060 O   0  0  0  0  0  0  0  0  0  0  0  0
    7.6020   -3.2630   23.6930 C   0  0  0  0  0  0  0  0  0  0  0  0
    7.6380   -3.1830   22.1630 C   0  0  0  0  0  0  0  0  0  0  0  0
  1  2  1  0
  2  3  2  0
  2  4  1  0
  4  5  1  0
  5  6  1  0
  6  7  1  0
  7  8  1  0
  8  9  2  0
  8 10  1  0
 11 10  1  6
 11 12  1  0
 12 13  1  0
 13 14  1  0
 14 15  1  0
 15 16  1  0
 16 17  2  0
 17 18  1  0
 18 19  2  0
 19 20  1  0
 16 21  1  0
 20 21  2  0
 11 22  1  0
 15 22  1  0
 22 23  2  0
  7 24  1  0
  4 25  1  0
 24 25  1  0
M  END
