piperidine-amides-14740-covalent
     RDKit          3D

 22 23  0  0  0  0  0  0  0  0999 V2000
    7.1090   -3.2820   19.2100 C   0  0  0  0  0  0  0  0  0  0  0  0
    6.3840   -4.0550   20.2150 C   0  0  0  0  0  0  0  0  0  0  0  0
    5.2970   -4.5600   19.8910 O   0  0  0  0  0  0  0  0  0  0  0  0
    6.9590   -4.2680   21.4980 N   0  0  0  0  0  0  0  0  0  0  0  0
    6.5310   -5.4150   22.2420 C   0  0  0  0  0  0  0  0  0  0  0  0
    5.7690   -4.9490   23.4460 C   0  0  0  0  0  0  0  0  0  0  0  0
    6.6620   -3.9850   24.1970 C   0  0  0  0  0  0  0  0  0  0  0  0
    5.9900   -3.5650   25.4540 C   0  0  0  0  0  0  0  0  0  0  0  0
    4.8590   -3.0830   25.3450 O   0  0  0  0  0  0  0  0  0  0  0  0
    6.6900   -3.7540   26.6320 N   0  0  0  0  0  0  0  0  0  0  0  0
    6.2920   -4.7140   27.5950 C   0  0  0  0  0  0  0  0  0  0  0  0
    5.7480   -5.9050   27.1390 C   0  0  0  0  0  0  0  0  0  0  0  0
    7.4190   -5.1520   28.4350 C   0  0  0  0  0  0  0  0  0  0  0  0
    5.3780   -3.9360   28.4990 C   0  0  0  0  0  0  0  0  0  0  0  0
    5.9590   -2.6370   28.9190 C   0  0  0  0  0  0  0  0  0  0  0  0
    5.2660   -1.6130   29.8350 C   0  0  0  0  0  0  0  0  0  0  0  0
    3.9070   -1.9790   30.3250 C   0  0  0  0  0  0  0  0  0  0  0  0
    3.3270   -3.3100   29.8870 C   0  0  0  0  0  0  0  0  0  0  0  0
    4.1070   -4.2880   28.9530 C   0  0  0  0  0  0  0  0  0  0  0  0
    3.5180   -5.4790   28.5980 C   0  0  0  0  0  0  0  0  0  0  0  0
    6.8430   -2.7710   23.3420 C   0  0  0  0  0  0  0  0  0  0  0  0
    7.6060   -3.1300   22.1040 C   0  0  0  0  0  0  0  0  0  0  0  0
  1  2  1  0
  2  3  2  0
  2  4  1  0
  4  5  1  0
  5  6  1  0
  6  7  1  0
  7  8  1  0
  8  9  2  0
  8 10  1  0
 11 10  1  0
 11 12  1  0
 11 13  1  0
 11 14  1  0
 14 15  2  0
 15 16  1  0
 16 17  2  0
 17 18  1  0
 14 19  1  0
 18 19  2  0
 19 20  1  0
  7 21  1  0
  4 22  1  0
 21 22  1  0
M  END
