piperidine-amides-23508-covalent
     RDKit          3D

 22 23  0  0  0  0  0  0  0  0999 V2000
    7.0600   -3.3660   19.3240 C   0  0  0  0  0  0  0  0  0  0  0  0
    6.4200   -4.2230   20.3310 C   0  0  0  0  0  0  0  0  0  0  0  0
    5.3670   -4.8070   19.9740 O   0  0  0  0  0  0  0  0  0  0  0  0
    7.0010   -4.4350   21.6130 N   0  0  0  0  0  0  0  0  0  0  0  0
    6.5280   -5.5130   22.3950 C   0  0  0  0  0  0  0  0  0  0  0  0
    5.8850   -5.1180   23.6520 C   0  0  0  0  0  0  0  0  0  0  0  0
    6.3150   -3.8370   24.2730 C   0  0  0  0  0  0  0  0  0  0  0  0
    5.2620   -3.3540   25.2370 C   0  0  0  0  0  0  0  0  0  0  0  0
    4.2710   -2.7750   24.7740 O   0  0  0  0  0  0  0  0  0  0  0  0
    5.3490   -3.5290   26.6350 N   0  0  0  0  0  0  0  0  0  0  0  0
    6.4890   -3.3360   27.3730 C   0  0  0  0  0  0  0  0  0  0  0  0
    6.8480   -4.3460   28.3670 C   0  0  0  0  0  0  0  0  0  0  0  0
    5.6400   -4.3460   29.2570 C   0  0  0  0  0  0  0  0  0  0  0  0
    5.2010   -3.0680   29.6000 C   0  0  0  0  0  0  0  0  0  0  0  0
    3.6940   -3.2190   30.6090 S   0  0  0  0  0  0  0  0  0  0  0  0
    3.7500   -1.9640   31.9140 C   0  0  0  0  0  0  0  0  0  0  0  0
    3.6730   -4.5930   31.2200 O   0  0  0  0  0  0  0  0  0  0  0  0
    2.4560   -2.9960   29.8150 O   0  0  0  0  0  0  0  0  0  0  0  0
    4.4190   -4.6090   28.4980 C   0  0  0  0  0  0  0  0  0  0  0  0
    4.1490   -3.5360   27.4180 C   0  0  0  0  0  0  0  0  0  0  0  0
    6.7350   -2.7530   23.3070 C   0  0  0  0  0  0  0  0  0  0  0  0
    7.6860   -3.3640   22.2980 C   0  0  0  0  0  0  0  0  0  0  0  0
  1  2  1  0
  2  3  2  0
  2  4  1  0
  4  5  1  0
  5  6  1  0
  6  7  1  0
  7  8  1  0
  8  9  2  0
  8 10  1  0
 10 11  1  0
 11 12  1  0
 12 13  1  0
 13 14  1  0
 15 14  1  0
 15 16  1  0
 15 17  2  0
 15 18  2  0
 13 19  1  0
 10 20  1  0
 19 20  1  0
  7 21  1  0
  4 22  1  0
 21 22  1  0
M  END
