piperidine-amides-25858-covalent
     RDKit          3D

 25 27  0  0  0  0  0  0  0  0999 V2000
    6.9650   -3.3550   19.3800 C   0  0  0  0  0  0  0  0  0  0  0  0
    6.2850   -4.2520   20.3560 C   0  0  0  0  0  0  0  0  0  0  0  0
    5.3170   -4.8830   19.9610 O   0  0  0  0  0  0  0  0  0  0  0  0
    6.7650   -4.3800   21.6580 N   0  0  0  0  0  0  0  0  0  0  0  0
    6.4820   -5.5290   22.4800 C   0  0  0  0  0  0  0  0  0  0  0  0
    5.8290   -5.1230   23.7910 C   0  0  0  0  0  0  0  0  0  0  0  0
    5.4360   -3.6330   23.8040 C   0  0  0  0  0  0  0  0  0  0  0  0
    4.9290   -3.2670   25.1810 C   0  0  0  0  0  0  0  0  0  0  0  0
    3.7310   -3.0570   25.3660 O   0  0  0  0  0  0  0  0  0  0  0  0
    5.8300   -3.1720   26.2400 N   0  0  0  0  0  0  0  0  0  0  0  0
    5.3740   -3.1390   27.6290 C   0  0  0  0  0  0  0  0  0  0  0  0
    5.9370   -4.3340   28.3850 C   0  0  0  0  0  0  0  0  0  0  0  0
    7.0450   -4.9970   27.9530 C   0  0  0  0  0  0  0  0  0  0  0  0
    7.5640   -4.4740   26.8130 C   0  0  0  0  0  0  0  0  0  0  0  0
    7.0810   -3.6060   25.9590 C   0  0  0  0  0  0  0  0  0  0  0  0
    7.6260   -3.0080   24.7010 C   0  0  0  0  0  0  0  0  0  0  0  0
    8.9560   -3.5360   24.3840 C   0  0  0  0  0  0  0  0  0  0  0  0
    9.6380   -4.5050   25.2180 N   0  0  0  0  0  0  0  0  0  0  0  0
    8.9240   -4.9060   26.3650 C   0  0  0  0  0  0  0  0  0  0  0  0
    9.5460   -5.8190   27.2200 C   0  0  0  0  0  0  0  0  0  0  0  0
    9.8000   -7.0100   26.5950 O   0  0  0  0  0  0  0  0  0  0  0  0
    9.7830   -5.4320   28.3480 O   0  0  0  0  0  0  0  0  0  0  0  0
    9.3000   -4.1310   28.5430 C   0  0  0  0  0  0  0  0  0  0  0  0
    6.4490   -2.6820   23.2500 C   0  0  0  0  0  0  0  0  0  0  0  0
    7.4280   -3.2770   22.2880 C   0  0  0  0  0  0  0  0  0  0  0  0
  1  2  1  0
  2  3  2  0
  2  4  1  0
  4  5  1  0
  5  6  1  0
  6  7  1  0
  7  8  1  0
  8  9  2  0
  8 10  1  0
 10 11  1  0
 11 12  1  0
 12 13  1  0
 13 14  1  0
 10 15  1  0
 14 15  2  0
 15 16  1  0
 16 17  2  0
 17 18  1  0
 14 19  1  0
 18 19  2  0
 19 20  1  0
 20 21  2  0
 20 22  1  0
 22 23  1  0
  7 24  1  0
  4 25  1  0
 24 25  1  0
M  END
