piperidine-amides-34847-covalent
     RDKit          3D

 31 33  0  0  0  0  0  0  0  0999 V2000
    7.0750   -3.3210   19.2890 C   0  0  0  0  0  0  0  0  0  0  0  0
    6.4070   -4.1420   20.3250 C   0  0  0  0  0  0  0  0  0  0  0  0
    5.3990   -4.7620   19.9690 O   0  0  0  0  0  0  0  0  0  0  0  0
    6.9450   -4.2240   21.6160 N   0  0  0  0  0  0  0  0  0  0  0  0
    7.7180   -3.1500   22.1860 C   0  0  0  0  0  0  0  0  0  0  0  0
    6.9490   -2.5140   23.3170 C   0  0  0  0  0  0  0  0  0  0  0  0
    6.4270   -3.5670   24.3070 C   0  0  0  0  0  0  0  0  0  0  0  0
    5.5260   -2.8730   25.2820 C   0  0  0  0  0  0  0  0  0  0  0  0
    4.4950   -2.3510   24.8490 O   0  0  0  0  0  0  0  0  0  0  0  0
    5.7930   -2.8050   26.6780 N   0  0  0  0  0  0  0  0  0  0  0  0
    5.6110   -3.9530   27.5330 C   0  0  0  0  0  0  0  0  0  0  0  0
    6.8040   -4.6880   27.1330 C   0  0  0  0  0  0  0  0  0  0  0  0
    7.8030   -4.8350   28.0550 C   0  0  0  0  0  0  0  0  0  0  0  0
    8.8960   -5.4390   27.7480 C   0  0  0  0  0  0  0  0  0  0  0  0
    8.9130   -5.8430   26.5180 C   0  0  0  0  0  0  0  0  0  0  0  0
   10.0600   -6.4450   26.1970 F   0  0  0  0  0  0  0  0  0  0  0  0
    8.0080   -5.8210   25.3660 C   0  0  0  0  0  0  0  0  0  0  0  0
    6.7190   -5.1510   25.7090 C   0  0  0  0  0  0  0  0  0  0  0  0
    5.6570   -4.9910   24.8320 F   0  0  0  0  0  0  0  0  0  0  0  0
    6.0360   -1.5750   27.3720 C   0  0  0  0  0  0  0  0  0  0  0  0
    6.9480   -1.5790   28.5460 C   0  0  0  0  0  0  0  0  0  0  0  0
    7.1100   -0.2750   29.2150 C   0  0  0  0  0  0  0  0  0  0  0  0
    6.3680    0.9300   28.6730 C   0  0  0  0  0  0  0  0  0  0  0  0
    6.4680    2.2880   29.2900 C   0  0  0  0  0  0  0  0  0  0  0  0
    7.4160    2.2530   30.2880 F   0  0  0  0  0  0  0  0  0  0  0  0
    6.7940    3.1910   28.2940 F   0  0  0  0  0  0  0  0  0  0  0  0
    5.2680    2.6830   29.8630 F   0  0  0  0  0  0  0  0  0  0  0  0
    5.5630    0.7270   27.5480 C   0  0  0  0  0  0  0  0  0  0  0  0
    5.4460   -0.4840   26.9780 N   0  0  0  0  0  0  0  0  0  0  0  0
    5.6270   -4.5970   23.5080 C   0  0  0  0  0  0  0  0  0  0  0  0
    6.4600   -5.2740   22.4490 C   0  0  0  0  0  0  0  0  0  0  0  0
  1  2  1  0
  2  3  2  0
  2  4  1  0
  4  5  1  0
  5  6  1  0
  6  7  1  0
  7  8  1  0
  8  9  2  0
  8 10  1  0
 10 11  1  0
 11 12  1  0
 12 13  2  0
 13 14  1  0
 14 15  2  0
 15 16  1  0
 15 17  1  0
 12 18  1  0
 17 18  2  0
 18 19  1  0
 10 20  1  0
 20 21  2  0
 21 22  1  0
 22 23  2  0
 23 24  1  0
 24 25  1  0
 24 26  1  0
 24 27  1  0
 23 28  1  0
 20 29  1  0
 28 29  2  0
  7 30  1  0
  4 31  1  0
 30 31  1  0
M  END
