piperidine-amides-4431-covalent
     RDKit          3D

 25 26  0  0  0  0  0  0  0  0999 V2000
    7.0720   -3.3080   19.2600 C   0  0  0  0  0  0  0  0  0  0  0  0
    6.3680   -4.0830   20.2950 C   0  0  0  0  0  0  0  0  0  0  0  0
    5.3200   -4.6730   19.9350 O   0  0  0  0  0  0  0  0  0  0  0  0
    6.8780   -4.2070   21.6150 N   0  0  0  0  0  0  0  0  0  0  0  0
    6.5440   -5.3670   22.3690 C   0  0  0  0  0  0  0  0  0  0  0  0
    5.9930   -5.0420   23.6700 C   0  0  0  0  0  0  0  0  0  0  0  0
    6.1430   -3.6100   23.9710 C   0  0  0  0  0  0  0  0  0  0  0  0
    5.6430   -3.2470   25.3440 C   0  0  0  0  0  0  0  0  0  0  0  0
    4.4290   -3.0140   25.4720 O   0  0  0  0  0  0  0  0  0  0  0  0
    6.4720   -3.1510   26.4840 N   0  0  0  0  0  0  0  0  0  0  0  0
    6.3220   -3.7840   27.7530 C   0  0  2  0  0  0  0  0  0  0  0  0
    5.7020   -5.1000   27.8710 C   0  0  0  0  0  0  0  0  0  0  0  0
    5.6390   -2.8390   28.7020 C   0  0  0  0  0  0  0  0  0  0  0  0
    6.4790   -1.8490   29.2150 C   0  0  0  0  0  0  0  0  0  0  0  0
    5.9510   -0.7620   30.2310 C   0  0  0  0  0  0  0  0  0  0  0  0
    4.4980   -0.7250   30.7120 C   0  0  0  0  0  0  0  0  0  0  0  0
    3.6900    0.5090   31.9270 Br  0  0  0  0  0  0  0  0  0  0  0  0
    3.7420   -1.8610   30.0570 C   0  0  0  0  0  0  0  0  0  0  0  0
    4.2300   -2.8690   29.1160 C   0  0  0  0  0  0  0  0  0  0  0  0
    3.3770   -3.8680   28.6020 O   0  0  0  0  0  0  0  0  0  0  0  0
    2.3000   -4.3180   29.4080 C   0  0  0  0  0  0  0  0  0  0  0  0
    1.0310   -3.4540   29.3130 C   0  0  0  0  0  0  0  0  0  0  0  0
    0.0540   -4.2010   29.0440 O   0  0  0  0  0  0  0  0  0  0  0  0
    7.5370   -3.1810   23.6410 C   0  0  0  0  0  0  0  0  0  0  0  0
    7.6230   -3.1080   22.2380 C   0  0  0  0  0  0  0  0  0  0  0  0
  1  2  1  0
  2  3  2  0
  2  4  1  0
  4  5  1  0
  5  6  1  0
  6  7  1  0
  7  8  1  0
  8  9  2  0
  8 10  1  0
 10 11  1  0
 11 12  1  6
 11 13  1  0
 13 14  2  0
 14 15  1  0
 15 16  2  0
 16 17  1  0
 16 18  1  0
 13 19  1  0
 18 19  2  0
 19 20  1  0
 20 21  1  0
 21 22  1  0
 22 23  1  0
  7 24  1  0
  4 25  1  0
 24 25  1  0
M  END
