piperidine-amides-24665-covalent
     RDKit          3D

 24 25  0  0  0  0  0  0  0  0999 V2000
    7.0110   -3.3660   19.4000 C   0  0  0  0  0  0  0  0  0  0  0  0
    6.3870   -4.2650   20.3830 C   0  0  0  0  0  0  0  0  0  0  0  0
    5.4180   -4.9640   20.0130 O   0  0  0  0  0  0  0  0  0  0  0  0
    6.8810   -4.3860   21.7000 N   0  0  0  0  0  0  0  0  0  0  0  0
    6.5610   -5.5910   22.4500 C   0  0  0  0  0  0  0  0  0  0  0  0
    6.1360   -5.1790   23.8830 C   0  0  0  0  0  0  0  0  0  0  0  0
    5.9640   -3.6780   23.8520 C   0  0  0  0  0  0  0  0  0  0  0  0
    5.2940   -3.0480   25.0360 C   0  0  0  0  0  0  0  0  0  0  0  0
    4.6580   -2.0140   24.7940 O   0  0  0  0  0  0  0  0  0  0  0  0
    5.2940   -3.5120   26.3800 N   0  0  0  0  0  0  0  0  0  0  0  0
    4.1150   -3.2460   27.1690 C   0  0  0  0  0  0  0  0  0  0  0  0
    4.1810   -3.8770   28.5630 C   0  0  0  0  0  0  0  0  0  0  0  0
    5.3760   -4.2140   29.0720 C   0  0  0  0  0  0  0  0  0  0  0  0
    6.2200   -4.5050   28.1350 C   0  0  1  0  0  0  0  0  0  0  0  0
    5.9120   -5.6860   27.4450 C   0  0  0  0  0  0  0  0  0  0  0  0
    5.5740   -5.6910   26.1350 O   0  0  0  0  0  0  0  0  0  0  0  0
    5.9890   -6.7490   28.2440 N   0  0  0  0  0  0  0  0  0  0  0  0
    4.8220   -7.3550   28.7920 C   0  0  0  0  0  0  0  0  0  0  0  0
    4.2530   -6.9390   30.1370 C   0  0  0  0  0  0  0  0  0  0  0  0
    5.7230   -7.3250   30.1420 C   0  0  0  0  0  0  0  0  0  0  0  0
    3.2550   -7.7350   30.8510 C   0  0  0  0  0  0  0  0  0  0  0  0
    6.3180   -3.3950   27.3200 C   0  0  0  0  0  0  0  0  0  0  0  0
    7.2990   -3.0580   23.5720 C   0  0  0  0  0  0  0  0  0  0  0  0
    7.6430   -3.3130   22.2780 C   0  0  0  0  0  0  0  0  0  0  0  0
  1  2  1  0
  2  3  2  0
  2  4  1  0
  4  5  1  0
  5  6  1  0
  6  7  1  0
  7  8  1  0
  8  9  2  0
  8 10  1  0
 10 11  1  0
 11 12  1  0
 12 13  1  0
 13 14  1  0
 14 15  1  6
 15 16  2  0
 15 17  1  0
 17 18  1  0
 18 19  1  0
 19 20  1  0
 19 21  1  0
 10 22  1  0
 14 22  1  0
  7 23  1  0
  4 24  1  0
 23 24  1  0
M  END
