piperidine-amides-9324-covalent
     RDKit          3D

 19 20  0  0  0  0  0  0  0  0999 V2000
    7.0720   -3.3490   19.3130 C   0  0  0  0  0  0  0  0  0  0  0  0
    6.3900   -4.1830   20.3040 C   0  0  0  0  0  0  0  0  0  0  0  0
    5.3700   -4.8050   19.9710 O   0  0  0  0  0  0  0  0  0  0  0  0
    6.9000   -4.3320   21.6050 N   0  0  0  0  0  0  0  0  0  0  0  0
    7.7370   -3.3260   22.2030 C   0  0  0  0  0  0  0  0  0  0  0  0
    6.9550   -2.8030   23.3710 C   0  0  0  0  0  0  0  0  0  0  0  0
    6.4220   -3.9020   24.2470 C   0  0  0  0  0  0  0  0  0  0  0  0
    5.5520   -3.4090   25.3590 C   0  0  0  0  0  0  0  0  0  0  0  0
    4.3030   -3.3200   25.1770 O   0  0  0  0  0  0  0  0  0  0  0  0
    6.0170   -3.0190   26.6440 N   0  0  0  0  0  0  0  0  0  0  0  0
    6.3280   -1.5970   26.9510 C   0  0  1  0  0  0  0  0  0  0  0  0
    6.7700   -1.0030   25.6780 C   0  0  0  0  0  0  0  0  0  0  0  0
    6.0060   -1.1190   24.6890 O   0  0  0  0  0  0  0  0  0  0  0  0
    5.0870   -0.7070   27.2330 C   0  0  0  0  0  0  0  0  0  0  0  0
    5.7160    0.4970   27.9230 C   0  0  0  0  0  0  0  0  0  0  0  0
    6.7920    0.0240   28.5680 O   0  0  0  0  0  0  0  0  0  0  0  0
    7.1760   -1.2060   28.0240 C   0  0  0  0  0  0  0  0  0  0  0  0
    5.6480   -4.9040   23.4420 C   0  0  0  0  0  0  0  0  0  0  0  0
    6.3610   -5.3990   22.3820 C   0  0  0  0  0  0  0  0  0  0  0  0
  1  2  1  0
  2  3  2  0
  2  4  1  0
  4  5  1  0
  5  6  1  0
  6  7  1  0
  7  8  1  0
  8  9  2  0
  8 10  1  0
 11 10  1  0
 11 12  1  6
 12 13  1  0
 11 14  1  0
 14 15  1  0
 15 16  1  0
 11 17  1  0
 16 17  1  0
  7 18  1  0
  4 19  1  0
 18 19  1  0
M  END
