piperidine-amides-23940-covalent
     RDKit          3D

 24 27  0  0  0  0  0  0  0  0999 V2000
    7.1580   -3.2980   19.2600 C   0  0  0  0  0  0  0  0  0  0  0  0
    6.3890   -4.0510   20.2630 C   0  0  0  0  0  0  0  0  0  0  0  0
    5.2950   -4.5370   19.8870 O   0  0  0  0  0  0  0  0  0  0  0  0
    6.8980   -4.2670   21.5680 N   0  0  0  0  0  0  0  0  0  0  0  0
    7.6510   -3.2230   22.1870 C   0  0  0  0  0  0  0  0  0  0  0  0
    7.2480   -2.9620   23.5550 C   0  0  0  0  0  0  0  0  0  0  0  0
    6.0480   -3.7190   23.9510 C   0  0  0  0  0  0  0  0  0  0  0  0
    5.5940   -3.3870   25.3350 C   0  0  0  0  0  0  0  0  0  0  0  0
    4.4330   -3.6830   25.6650 O   0  0  0  0  0  0  0  0  0  0  0  0
    6.4280   -2.7420   26.2600 N   0  0  0  0  0  0  0  0  0  0  0  0
    7.1220   -1.5410   26.0390 C   0  0  0  0  0  0  0  0  0  0  0  0
    6.0780   -2.9310   27.6550 C   0  0  0  0  0  0  0  0  0  0  0  0
    5.4950   -1.7060   28.4040 C   0  0  2  0  0  0  0  0  0  0  0  0
    5.0860   -0.7070   27.4770 C   0  0  0  0  0  0  0  0  0  0  0  0
    4.8920    0.5380   28.4170 C   0  0  1  0  0  0  0  0  0  0  0  0
    3.5030    0.1630   28.9250 C   0  0  0  0  0  0  0  0  0  0  0  0
    4.0090   -0.9430   29.8810 C   0  0  2  0  0  0  0  0  0  0  0  0
    4.9110   -0.5340   31.0130 C   0  0  0  0  0  0  0  0  0  0  0  0
    6.2030   -0.3660   30.2860 C   0  0  2  0  0  0  0  0  0  0  0  0
    6.0290    0.7800   29.3630 C   0  0  0  0  0  0  0  0  0  0  0  0
    6.5030   -1.4570   29.3280 C   0  0  0  0  0  0  0  0  0  0  0  0
    4.4470   -2.0750   29.2170 C   0  0  0  0  0  0  0  0  0  0  0  0
    6.1470   -5.1860   23.7010 C   0  0  0  0  0  0  0  0  0  0  0  0
    6.5680   -5.4780   22.2760 C   0  0  0  0  0  0  0  0  0  0  0  0
  1  2  1  0
  2  3  2  0
  2  4  1  0
  4  5  1  0
  5  6  1  0
  6  7  1  0
  7  8  1  0
  8  9  2  0
  8 10  1  0
 10 11  1  0
 10 12  1  0
 13 12  1  6
 13 14  1  0
 15 14  1  6
 15 16  1  0
 17 16  1  6
 17 18  1  0
 19 18  1  6
 15 20  1  0
 19 20  1  0
 13 21  1  0
 19 21  1  0
 13 22  1  0
 17 22  1  0
  7 23  1  0
  4 24  1  0
 23 24  1  0
M  END
