piperidine-amides-29693-covalent
     RDKit          3D

 27 30  0  0  0  0  0  0  0  0999 V2000
    7.0770   -3.3510   19.3900 C   0  0  0  0  0  0  0  0  0  0  0  0
    6.3870   -4.2220   20.3340 C   0  0  0  0  0  0  0  0  0  0  0  0
    5.3770   -4.8300   19.9780 O   0  0  0  0  0  0  0  0  0  0  0  0
    6.9100   -4.4160   21.6600 N   0  0  0  0  0  0  0  0  0  0  0  0
    7.6930   -3.3900   22.2960 C   0  0  0  0  0  0  0  0  0  0  0  0
    7.0750   -2.9320   23.5890 C   0  0  0  0  0  0  0  0  0  0  0  0
    6.2870   -4.0520   24.2730 C   0  0  0  0  0  0  0  0  0  0  0  0
    5.3160   -3.4320   25.2280 C   0  0  0  0  0  0  0  0  0  0  0  0
    4.4280   -2.6660   24.8280 O   0  0  0  0  0  0  0  0  0  0  0  0
    5.3810   -3.6880   26.6230 N   0  0  0  0  0  0  0  0  0  0  0  0
    4.2770   -3.2830   27.4390 C   0  0  0  0  0  0  0  0  0  0  0  0
    4.4350   -3.9050   28.8060 C   0  0  0  0  0  0  0  0  0  0  0  0
    5.4870   -4.6320   29.1710 N   0  0  0  0  0  0  0  0  0  0  0  0
    5.1250   -5.6490   29.9900 C   0  0  0  0  0  0  0  0  0  0  0  0
    5.6490   -6.9690   30.0620 C   0  0  0  0  0  0  0  0  0  0  0  0
    5.1340   -7.8500   30.9940 N   0  0  0  0  0  0  0  0  0  0  0  0
    4.1610   -7.4460   31.7900 C   0  0  0  0  0  0  0  0  0  0  0  0
    3.6750   -6.1190   31.6750 C   0  0  0  0  0  0  0  0  0  0  0  0
    2.6720   -5.6440   32.4790 N   0  0  0  0  0  0  0  0  0  0  0  0
    2.5400   -4.3090   32.0030 C   0  0  0  0  0  0  0  0  0  0  0  0
    1.5900   -3.5190   32.6150 C   0  0  0  0  0  0  0  0  0  0  0  0
    3.4270   -4.1020   31.0030 N   0  0  0  0  0  0  0  0  0  0  0  0
    4.1260   -5.2140   30.8010 N   0  0  0  0  0  0  0  0  0  0  0  0
    6.5490   -4.5520   28.3450 C   0  0  0  0  0  0  0  0  0  0  0  0
    6.4970   -3.4100   27.4120 C   0  0  0  0  0  0  0  0  0  0  0  0
    5.5760   -5.0020   23.3240 C   0  0  0  0  0  0  0  0  0  0  0  0
    6.5070   -5.5360   22.4430 C   0  0  0  0  0  0  0  0  0  0  0  0
  1  2  1  0
  2  3  2  0
  2  4  1  0
  4  5  1  0
  5  6  1  0
  6  7  1  0
  7  8  1  0
  8  9  2  0
  8 10  1  0
 10 11  1  0
 11 12  1  0
 12 13  1  0
 13 14  1  0
 14 15  2  0
 15 16  1  0
 16 17  2  0
 17 18  1  0
 18 19  2  0
 19 20  1  0
 20 21  1  0
 20 22  2  0
 14 23  1  0
 18 23  1  0
 22 23  1  0
 13 24  1  0
 10 25  1  0
 24 25  1  0
  7 26  1  0
  4 27  1  0
 26 27  1  0
M  END
