piperidine-amides-23330-covalent
     RDKit          3D

 24 26  0  0  0  0  0  0  0  0999 V2000
    7.0540   -3.3690   19.3450 C   0  0  0  0  0  0  0  0  0  0  0  0
    6.4090   -4.2200   20.3600 C   0  0  0  0  0  0  0  0  0  0  0  0
    5.3920   -4.8560   19.9890 O   0  0  0  0  0  0  0  0  0  0  0  0
    6.9510   -4.3510   21.6690 N   0  0  0  0  0  0  0  0  0  0  0  0
    6.6690   -5.5390   22.4060 C   0  0  0  0  0  0  0  0  0  0  0  0
    6.1810   -5.2490   23.7440 C   0  0  0  0  0  0  0  0  0  0  0  0
    6.2560   -3.8150   24.0230 C   0  0  0  0  0  0  0  0  0  0  0  0
    5.7530   -3.4230   25.3840 C   0  0  0  0  0  0  0  0  0  0  0  0
    4.9230   -2.4960   25.4460 O   0  0  0  0  0  0  0  0  0  0  0  0
    6.1150   -4.0460   26.5990 N   0  0  0  0  0  0  0  0  0  0  0  0
    5.4270   -5.0580   27.0900 C   0  0  0  0  0  0  0  0  0  0  0  0
    4.4240   -4.4310   27.7960 C   0  0  0  0  0  0  0  0  0  0  0  0
    5.1080   -3.2830   28.5710 C   0  0  0  0  0  0  0  0  0  0  0  0
    4.5450   -2.6610   29.8380 C   0  0  0  0  0  0  0  0  0  0  0  0
    5.3890   -1.4890   30.5770 C   0  0  0  0  0  0  0  0  0  0  0  0
    6.4570   -1.4950   29.6890 C   0  0  0  0  0  0  0  0  0  0  0  0
    7.6640   -0.6030   29.8380 C   0  0  0  0  0  0  0  0  0  0  0  0
    8.9180   -0.9580   29.4060 O   0  0  0  0  0  0  0  0  0  0  0  0
    7.6250    0.5060   30.3930 O   0  0  0  0  0  0  0  0  0  0  0  0
    8.2790    0.6850   31.6630 C   0  0  0  0  0  0  0  0  0  0  0  0
    6.1180   -2.4330   28.7550 C   0  0  0  0  0  0  0  0  0  0  0  0
    6.4570   -3.0810   27.5990 C   0  0  0  0  0  0  0  0  0  0  0  0
    7.6210   -3.3300   23.6680 C   0  0  0  0  0  0  0  0  0  0  0  0
    7.7380   -3.2680   22.2670 C   0  0  0  0  0  0  0  0  0  0  0  0
  1  2  1  0
  2  3  2  0
  2  4  1  0
  4  5  1  0
  5  6  1  0
  6  7  1  0
  7  8  1  0
  8  9  2  0
  8 10  1  0
 10 11  1  0
 11 12  1  0
 12 13  1  0
 13 14  1  0
 14 15  2  0
 15 16  1  0
 16 17  1  0
 17 18  2  0
 17 19  1  0
 19 20  1  0
 16 21  2  0
 10 22  1  0
 13 22  2  0
 21 22  1  0
  7 23  1  0
  4 24  1  0
 23 24  1  0
M  END
