piperidine-amides-10554-covalent
     RDKit          3D

 23 24  0  0  0  0  0  0  0  0999 V2000
    7.0210   -3.3380   19.3250 C   0  0  0  0  0  0  0  0  0  0  0  0
    6.3690   -4.1690   20.3450 C   0  0  0  0  0  0  0  0  0  0  0  0
    5.3660   -4.8310   19.9710 O   0  0  0  0  0  0  0  0  0  0  0  0
    6.8750   -4.2360   21.6460 N   0  0  0  0  0  0  0  0  0  0  0  0
    7.7510   -3.2110   22.1670 C   0  0  0  0  0  0  0  0  0  0  0  0
    7.4470   -3.0370   23.6190 C   0  0  0  0  0  0  0  0  0  0  0  0
    6.0820   -3.5810   23.9270 C   0  0  0  0  0  0  0  0  0  0  0  0
    5.6770   -3.2530   25.3100 C   0  0  0  0  0  0  0  0  0  0  0  0
    4.4690   -3.3670   25.6110 O   0  0  0  0  0  0  0  0  0  0  0  0
    6.5820   -2.8140   26.2820 N   0  0  0  0  0  0  0  0  0  0  0  0
    6.4080   -1.5410   26.9380 C   0  0  0  0  0  0  0  0  0  0  0  0
    6.1290   -0.2920   26.2100 C   0  0  0  0  0  0  0  0  0  0  0  0
    6.0440    0.6460   27.3070 N   0  0  0  0  0  0  0  0  0  0  0  0
    5.8000    1.9180   27.0470 C   0  0  0  0  0  0  0  0  0  0  0  0
    6.2530   -0.0470   28.4570 N   0  0  0  0  0  0  0  0  0  0  0  0
    6.5000   -1.4300   28.4390 C   0  0  0  0  0  0  0  0  0  0  0  0
    6.4680   -0.7720   29.6560 C   0  0  0  0  0  0  0  0  0  0  0  0
    5.5430   -1.1840   30.5920 O   0  0  0  0  0  0  0  0  0  0  0  0
    7.2780    0.2600   29.9880 N   0  0  0  0  0  0  0  0  0  0  0  0
    8.3470   -0.2700   30.7840 C   0  0  0  0  0  0  0  0  0  0  0  0
    6.7430    1.3130   30.6690 C   0  0  0  0  0  0  0  0  0  0  0  0
    6.0350   -5.0960   23.7330 C   0  0  0  0  0  0  0  0  0  0  0  0
    6.6970   -5.4550   22.3990 C   0  0  0  0  0  0  0  0  0  0  0  0
  1  2  1  0
  2  3  2  0
  2  4  1  0
  4  5  1  0
  5  6  1  0
  6  7  1  0
  7  8  1  0
  8  9  2  0
  8 10  1  0
 10 11  1  0
 11 12  2  0
 12 13  1  0
 13 14  1  0
 13 15  1  0
 11 16  1  0
 15 16  2  0
 16 17  1  0
 17 18  2  0
 17 19  1  0
 19 20  1  0
 19 21  1  0
  7 22  1  0
  4 23  1  0
 22 23  1  0
M  END
