piperidine-amides-2572-covalent
     RDKit          3D

 25 27  0  0  0  0  0  0  0  0999 V2000
    7.0930   -3.2550   19.2010 C   0  0  0  0  0  0  0  0  0  0  0  0
    6.3520   -4.0180   20.2420 C   0  0  0  0  0  0  0  0  0  0  0  0
    5.3030   -4.5550   19.8920 O   0  0  0  0  0  0  0  0  0  0  0  0
    6.8700   -4.1560   21.5340 N   0  0  0  0  0  0  0  0  0  0  0  0
    7.7340   -3.1610   22.1290 C   0  0  0  0  0  0  0  0  0  0  0  0
    7.5330   -3.1330   23.6160 C   0  0  0  0  0  0  0  0  0  0  0  0
    6.1530   -3.7030   23.9330 C   0  0  0  0  0  0  0  0  0  0  0  0
    5.7950   -3.4960   25.3520 C   0  0  0  0  0  0  0  0  0  0  0  0
    4.7270   -3.9710   25.7510 O   0  0  0  0  0  0  0  0  0  0  0  0
    6.6100   -2.8010   26.2680 N   0  0  0  0  0  0  0  0  0  0  0  0
    6.6030   -1.3540   26.3110 C   0  0  0  0  0  0  0  0  0  0  0  0
    5.1830   -0.8450   26.5370 C   0  0  0  0  0  0  0  0  0  0  0  0
    4.8720    0.3950   27.0290 C   0  0  0  0  0  0  0  0  0  0  0  0
    3.6010    0.7870   27.2040 C   0  0  0  0  0  0  0  0  0  0  0  0
    2.6000   -0.0570   26.8810 C   0  0  0  0  0  0  0  0  0  0  0  0
    1.1440    0.4190   27.0880 C   0  0  0  0  0  0  0  0  0  0  0  0
    0.1100   -0.5770   26.7040 C   0  0  0  0  0  0  0  0  0  0  0  0
   -1.3400   -0.2170   26.8600 C   0  0  0  0  0  0  0  0  0  0  0  0
    0.4460   -1.9040   26.1760 C   0  0  0  0  0  0  0  0  0  0  0  0
    1.8180   -2.3560   25.9810 C   0  0  0  0  0  0  0  0  0  0  0  0
    2.1150   -4.1130   25.2860 Br  0  0  0  0  0  0  0  0  0  0  0  0
    2.9920   -1.4370   26.3310 C   0  0  0  0  0  0  0  0  0  0  0  0
    4.2460   -1.9280   26.1200 N   0  0  0  0  0  0  0  0  0  0  0  0
    6.1340   -5.1840   23.6170 C   0  0  0  0  0  0  0  0  0  0  0  0
    6.7120   -5.4090   22.2450 C   0  0  0  0  0  0  0  0  0  0  0  0
  1  2  1  0
  2  3  2  0
  2  4  1  0
  4  5  1  0
  5  6  1  0
  6  7  1  0
  7  8  1  0
  8  9  2  0
  8 10  1  0
 10 11  1  0
 11 12  1  0
 12 13  2  0
 13 14  1  0
 14 15  2  0
 15 16  1  0
 16 17  2  0
 17 18  1  0
 17 19  1  0
 19 20  2  0
 20 21  1  0
 15 22  1  0
 20 22  1  0
 12 23  1  0
 22 23  2  0
  7 24  1  0
  4 25  1  0
 24 25  1  0
M  END
