piperidine-amides-11911-covalent
     RDKit          3D

 26 27  0  0  0  0  0  0  0  0999 V2000
    7.1040   -3.2790   19.1740 C   0  0  0  0  0  0  0  0  0  0  0  0
    6.3470   -4.0250   20.1740 C   0  0  0  0  0  0  0  0  0  0  0  0
    5.2680   -4.5310   19.8760 O   0  0  0  0  0  0  0  0  0  0  0  0
    6.8810   -4.2330   21.4870 N   0  0  0  0  0  0  0  0  0  0  0  0
    7.6670   -3.2160   22.1320 C   0  0  0  0  0  0  0  0  0  0  0  0
    6.9730   -2.7290   23.3690 C   0  0  0  0  0  0  0  0  0  0  0  0
    6.5700   -3.9310   24.2160 C   0  0  0  0  0  0  0  0  0  0  0  0
    5.6800   -3.4630   25.3050 C   0  0  0  0  0  0  0  0  0  0  0  0
    4.7150   -2.7000   25.0970 O   0  0  0  0  0  0  0  0  0  0  0  0
    5.9330   -3.9130   26.6160 N   0  0  0  0  0  0  0  0  0  0  0  0
    6.0210   -5.3340   26.8440 C   0  0  0  0  0  0  0  0  0  0  0  0
    7.4670   -5.6400   27.0160 C   0  0  0  0  0  0  0  0  0  0  0  0
    8.2570   -4.5900   27.3060 C   0  0  0  0  0  0  0  0  0  0  0  0
    7.9270   -3.6710   28.2990 C   0  0  0  0  0  0  0  0  0  0  0  0
    7.6870   -2.3450   27.9870 C   0  0  0  0  0  0  0  0  0  0  0  0
    7.6400   -1.3600   29.0620 C   0  0  0  0  0  0  0  0  0  0  0  0
    6.6960   -1.4450   29.9140 O   0  0  0  0  0  0  0  0  0  0  0  0
    6.5350   -0.2610   30.6420 C   0  0  0  0  0  0  0  0  0  0  0  0
    5.4730    0.5210   30.2530 C   0  0  0  0  0  0  0  0  0  0  0  0
    5.1570    1.7270   30.8570 C   0  0  0  0  0  0  0  0  0  0  0  0
    5.9930    2.1940   31.9630 C   0  0  0  0  0  0  0  0  0  0  0  0
    5.5760    3.7330   32.7230 Cl  0  0  0  0  0  0  0  0  0  0  0  0
    7.0690    1.4030   32.3570 C   0  0  0  0  0  0  0  0  0  0  0  0
    7.3190    0.1980   31.6930 C   0  0  0  0  0  0  0  0  0  0  0  0
    5.7710   -4.9480   23.4290 C   0  0  0  0  0  0  0  0  0  0  0  0
    6.5830   -5.4250   22.2240 C   0  0  0  0  0  0  0  0  0  0  0  0
  1  2  1  0
  2  3  2  0
  2  4  1  0
  4  5  1  0
  5  6  1  0
  6  7  1  0
  7  8  1  0
  8  9  2  0
  8 10  1  0
 10 11  1  0
 11 12  1  0
 12 13  1  0
 13 14  1  0
 14 15  1  0
 15 16  1  0
 16 17  1  0
 17 18  1  0
 18 19  2  0
 19 20  1  0
 20 21  2  0
 21 22  1  0
 21 23  1  0
 18 24  1  0
 23 24  2  0
  7 25  1  0
  4 26  1  0
 25 26  1  0
M  END
