piperidine-amides-10500-covalent
     RDKit          3D

 24 26  0  0  0  0  0  0  0  0999 V2000
    7.0370   -3.3240   19.3070 C   0  0  0  0  0  0  0  0  0  0  0  0
    6.3570   -4.1440   20.3140 C   0  0  0  0  0  0  0  0  0  0  0  0
    5.3200   -4.7510   19.9450 O   0  0  0  0  0  0  0  0  0  0  0  0
    6.8770   -4.2680   21.6020 N   0  0  0  0  0  0  0  0  0  0  0  0
    7.6780   -3.2130   22.1850 C   0  0  0  0  0  0  0  0  0  0  0  0
    6.9790   -2.7180   23.4150 C   0  0  0  0  0  0  0  0  0  0  0  0
    6.5190   -3.8630   24.2650 C   0  0  0  0  0  0  0  0  0  0  0  0
    5.6510   -3.3840   25.3780 C   0  0  0  0  0  0  0  0  0  0  0  0
    4.4250   -3.2890   25.1480 O   0  0  0  0  0  0  0  0  0  0  0  0
    6.1080   -3.0230   26.6720 N   0  0  0  0  0  0  0  0  0  0  0  0
    6.5420   -1.6720   26.9520 C   0  0  0  0  0  0  0  0  0  0  0  0
    7.0410   -1.5140   28.3900 C   0  0  0  0  0  0  0  0  0  0  0  0
    6.5750   -0.5750   29.2650 C   0  0  0  0  0  0  0  0  0  0  0  0
    5.5470    0.2420   28.8910 N   0  0  0  0  0  0  0  0  0  0  0  0
    4.4830    0.4520   29.6900 C   0  0  0  0  0  0  0  0  0  0  0  0
    4.6670    0.7300   31.0420 C   0  0  2  0  0  0  0  0  0  0  0  0
    5.2410    1.9680   31.3800 C   0  0  0  0  0  0  0  0  0  0  0  0
    6.2700    1.8510   32.2590 C   0  0  0  0  0  0  0  0  0  0  0  0
    6.3750    0.4000   32.5090 C   0  0  0  0  0  0  0  0  0  0  0  0
    5.3900   -0.2270   31.7880 O   0  0  0  0  0  0  0  0  0  0  0  0
    5.4390    0.6320   27.5290 C   0  0  0  0  0  0  0  0  0  0  0  0
    5.5520   -0.5840   26.6250 C   0  0  0  0  0  0  0  0  0  0  0  0
    5.7360   -4.8740   23.4660 C   0  0  0  0  0  0  0  0  0  0  0  0
    6.5360   -5.3930   22.4680 C   0  0  0  0  0  0  0  0  0  0  0  0
  1  2  1  0
  2  3  2  0
  2  4  1  0
  4  5  1  0
  5  6  1  0
  6  7  1  0
  7  8  1  0
  8  9  2  0
  8 10  1  0
 10 11  1  0
 11 12  1  0
 12 13  1  0
 13 14  1  0
 14 15  1  0
 16 15  1  6
 16 17  1  0
 17 18  1  0
 18 19  1  0
 16 20  1  0
 19 20  1  0
 14 21  1  0
 11 22  1  0
 21 22  1  0
  7 23  1  0
  4 24  1  0
 23 24  1  0
M  END
