piperidine-amides-16996-covalent
     RDKit          3D

 19 20  0  0  0  0  0  0  0  0999 V2000
    7.1600   -3.2870   19.2450 C   0  0  0  0  0  0  0  0  0  0  0  0
    6.3500   -4.0080   20.2370 C   0  0  0  0  0  0  0  0  0  0  0  0
    5.2470   -4.4640   19.8500 O   0  0  0  0  0  0  0  0  0  0  0  0
    6.8210   -4.2410   21.5480 N   0  0  0  0  0  0  0  0  0  0  0  0
    7.5510   -3.1890   22.1760 C   0  0  0  0  0  0  0  0  0  0  0  0
    7.2130   -2.9300   23.5760 C   0  0  0  0  0  0  0  0  0  0  0  0
    6.4040   -3.9660   24.2590 C   0  0  0  0  0  0  0  0  0  0  0  0
    5.6850   -3.3900   25.4480 C   0  0  0  0  0  0  0  0  0  0  0  0
    4.4550   -3.2050   25.3750 O   0  0  0  0  0  0  0  0  0  0  0  0
    6.3470   -3.0410   26.6510 N   0  0  0  0  0  0  0  0  0  0  0  0
    6.3720   -3.7840   27.8620 C   0  0  0  0  0  0  0  0  0  0  0  0
    6.6340   -1.6210   26.8130 C   0  0  0  0  0  0  0  0  0  0  0  0
    6.6340   -1.0150   28.2340 C   0  0  0  0  0  0  0  0  0  0  0  0
    7.5030   -1.2560   29.3030 C   0  0  0  0  0  0  0  0  0  0  0  0
    7.0490   -0.3750   30.5080 C   0  0  0  0  0  0  0  0  0  0  0  0
    5.9020    0.4450   30.2630 N   0  0  0  0  0  0  0  0  0  0  0  0
    5.4790    0.1210   28.7140 S   0  0  0  0  0  0  0  0  0  0  0  0
    5.4500   -4.7190   23.4100 C   0  0  0  0  0  0  0  0  0  0  0  0
    6.2510   -5.3460   22.2700 C   0  0  0  0  0  0  0  0  0  0  0  0
  1  2  1  0
  2  3  2  0
  2  4  1  0
  4  5  1  0
  5  6  1  0
  6  7  1  0
  7  8  1  0
  8  9  2  0
  8 10  1  0
 10 11  1  0
 10 12  1  0
 12 13  1  0
 13 14  2  0
 14 15  1  0
 15 16  2  0
 13 17  1  0
 16 17  1  0
  7 18  1  0
  4 19  1  0
 18 19  1  0
M  END
