piperidine-amides-15240-covalent
     RDKit          3D

 18 18  0  0  0  0  0  0  0  0999 V2000
    7.0890   -3.2540   19.2290 C   0  0  0  0  0  0  0  0  0  0  0  0
    6.3370   -4.0290   20.2380 C   0  0  0  0  0  0  0  0  0  0  0  0
    5.3180   -4.6730   19.9170 O   0  0  0  0  0  0  0  0  0  0  0  0
    6.7650   -4.0830   21.5640 N   0  0  0  0  0  0  0  0  0  0  0  0
    7.6930   -3.0850   22.0580 C   0  0  0  0  0  0  0  0  0  0  0  0
    7.5920   -3.0650   23.5790 C   0  0  0  0  0  0  0  0  0  0  0  0
    6.2030   -3.5480   23.9080 C   0  0  0  0  0  0  0  0  0  0  0  0
    5.9800   -3.4390   25.3600 C   0  0  0  0  0  0  0  0  0  0  0  0
    4.8070   -3.2940   25.7700 O   0  0  0  0  0  0  0  0  0  0  0  0
    7.0990   -3.4870   26.2330 N   0  0  0  0  0  0  0  0  0  0  0  0
    7.2440   -4.5380   27.2110 C   0  0  1  0  0  0  0  0  0  0  0  0
    6.1170   -5.5290   27.0470 C   0  0  0  0  0  0  0  0  0  0  0  0
    4.8770   -5.2330   27.5360 C   0  0  0  0  0  0  0  0  0  0  0  0
    8.5390   -5.2000   27.2100 C   0  0  0  0  0  0  0  0  0  0  0  0
    9.1760   -5.6020   26.0120 N   0  0  0  0  0  0  0  0  0  0  0  0
    9.0950   -5.4210   28.4390 O   0  0  0  0  0  0  0  0  0  0  0  0
    5.9380   -4.9610   23.4720 C   0  0  0  0  0  0  0  0  0  0  0  0
    6.6290   -5.3050   22.3330 C   0  0  0  0  0  0  0  0  0  0  0  0
  1  2  1  0
  2  3  2  0
  2  4  1  0
  4  5  1  0
  5  6  1  0
  6  7  1  0
  7  8  1  0
  8  9  2  0
  8 10  1  0
 10 11  1  0
 11 12  1  6
 12 13  1  0
 11 14  1  0
 14 15  1  0
 14 16  2  0
  7 17  1  0
  4 18  1  0
 17 18  1  0
M  END
