piperidine-amides-2362-covalent
     RDKit          3D

 27 29  0  0  0  0  0  0  0  0999 V2000
    7.0190   -3.3300   19.3140 C   0  0  0  0  0  0  0  0  0  0  0  0
    6.3660   -4.1820   20.3440 C   0  0  0  0  0  0  0  0  0  0  0  0
    5.3850   -4.8290   19.9810 O   0  0  0  0  0  0  0  0  0  0  0  0
    6.8880   -4.2570   21.6450 N   0  0  0  0  0  0  0  0  0  0  0  0
    7.6580   -3.1670   22.2060 C   0  0  0  0  0  0  0  0  0  0  0  0
    7.3590   -3.0150   23.6710 C   0  0  0  0  0  0  0  0  0  0  0  0
    5.9860   -3.6110   23.9670 C   0  0  0  0  0  0  0  0  0  0  0  0
    5.5900   -3.2800   25.3540 C   0  0  0  0  0  0  0  0  0  0  0  0
    4.3840   -3.2290   25.6480 O   0  0  0  0  0  0  0  0  0  0  0  0
    6.5480   -3.0210   26.3460 N   0  0  0  0  0  0  0  0  0  0  0  0
    6.4800   -1.8000   27.1170 C   0  0  0  0  0  0  0  0  0  0  0  0
    5.8250   -0.4960   26.7000 C   0  0  0  0  0  0  0  0  0  0  0  0
    5.7270    0.7020   27.3950 C   0  0  0  0  0  0  0  0  0  0  0  0
    6.2840    0.7970   28.6590 C   0  0  0  0  0  0  0  0  0  0  0  0
    6.1620    2.0060   29.3210 O   0  0  0  0  0  0  0  0  0  0  0  0
    5.8000    1.8670   30.6470 C   0  0  0  0  0  0  0  0  0  0  0  0
    7.0480    2.0360   31.4970 C   0  0  0  0  0  0  0  0  0  0  0  0
    6.7450    1.7390   32.7810 N   0  0  0  0  0  0  0  0  0  0  0  0
    7.0110    0.4460   33.0740 C   0  0  0  0  0  0  0  0  0  0  0  0
    7.4850   -0.0780   34.3990 C   0  0  0  0  0  0  0  0  0  0  0  0
    8.6510    0.8180   34.6430 C   0  0  0  0  0  0  0  0  0  0  0  0
    8.2860    2.2700   34.6170 C   0  0  0  0  0  0  0  0  0  0  0  0
    7.0680    2.6740   33.7940 C   0  0  0  0  0  0  0  0  0  0  0  0
    6.9910   -0.3770   29.2780 C   0  0  0  0  0  0  0  0  0  0  0  0
    7.0890   -1.6500   28.5280 C   0  0  0  0  0  0  0  0  0  0  0  0
    6.0790   -5.1030   23.7700 C   0  0  0  0  0  0  0  0  0  0  0  0
    6.6000   -5.4460   22.3980 C   0  0  0  0  0  0  0  0  0  0  0  0
  1  2  1  0
  2  3  2  0
  2  4  1  0
  4  5  1  0
  5  6  1  0
  6  7  1  0
  7  8  1  0
  8  9  2  0
  8 10  1  0
 10 11  1  0
 11 12  2  0
 12 13  1  0
 13 14  2  0
 14 15  1  0
 15 16  1  0
 16 17  1  0
 17 18  1  0
 18 19  1  0
 19 20  1  0
 20 21  1  0
 21 22  1  0
 18 23  1  0
 22 23  1  0
 14 24  1  0
 11 25  1  0
 24 25  2  0
  7 26  1  0
  4 27  1  0
 26 27  1  0
M  END
