piperidine-amides-30761-covalent
     RDKit          3D

 27 29  0  0  0  0  0  0  0  0999 V2000
    7.0520   -3.3480   19.3510 C   0  0  0  0  0  0  0  0  0  0  0  0
    6.3860   -4.1900   20.3480 C   0  0  0  0  0  0  0  0  0  0  0  0
    5.4090   -4.8710   19.9930 O   0  0  0  0  0  0  0  0  0  0  0  0
    6.8570   -4.2730   21.6770 N   0  0  0  0  0  0  0  0  0  0  0  0
    7.6990   -3.2580   22.2640 C   0  0  0  0  0  0  0  0  0  0  0  0
    6.9090   -2.6620   23.4010 C   0  0  0  0  0  0  0  0  0  0  0  0
    6.3870   -3.7130   24.3370 C   0  0  0  0  0  0  0  0  0  0  0  0
    5.2800   -3.1990   25.2080 C   0  0  0  0  0  0  0  0  0  0  0  0
    4.1580   -2.9530   24.6950 O   0  0  0  0  0  0  0  0  0  0  0  0
    5.3610   -2.9580   26.6120 N   0  0  0  0  0  0  0  0  0  0  0  0
    6.6140   -3.1220   27.2460 C   0  0  0  0  0  0  0  0  0  0  0  0
    6.4510   -4.2060   28.2870 C   0  0  0  0  0  0  0  0  0  0  0  0
    5.2170   -5.0450   28.3900 C   0  0  0  0  0  0  0  0  0  0  0  0
    4.7410   -6.0910   29.3680 C   0  0  0  0  0  0  0  0  0  0  0  0
    3.5210   -6.9520   29.1440 C   0  0  0  0  0  0  0  0  0  0  0  0
    3.3020   -7.7930   30.3300 C   0  0  0  0  0  0  0  0  0  0  0  0
    4.1450   -7.7210   31.3980 C   0  0  0  0  0  0  0  0  0  0  0  0
    4.3040   -8.2760   32.6900 C   0  0  0  0  0  0  0  0  0  0  0  0
    5.5230   -8.7330   33.0160 F   0  0  0  0  0  0  0  0  0  0  0  0
    3.3770   -9.2030   33.0810 F   0  0  0  0  0  0  0  0  0  0  0  0
    4.1060   -7.1840   33.5240 F   0  0  0  0  0  0  0  0  0  0  0  0
    5.4090   -7.0210   31.8950 C   0  0  0  0  0  0  0  0  0  0  0  0
    5.5480   -6.1740   30.6000 C   0  0  0  0  0  0  0  0  0  0  0  0
    4.3700   -4.6130   27.2810 C   0  0  0  0  0  0  0  0  0  0  0  0
    4.2690   -3.4310   27.3790 C   0  0  0  0  0  0  0  0  0  0  0  0
    5.9250   -4.9860   23.7170 C   0  0  0  0  0  0  0  0  0  0  0  0
    6.5300   -5.3680   22.5300 C   0  0  0  0  0  0  0  0  0  0  0  0
  1  2  1  0
  2  3  2  0
  2  4  1  0
  4  5  1  0
  5  6  1  0
  6  7  1  0
  7  8  1  0
  8  9  2  0
  8 10  1  0
 10 11  1  0
 11 12  1  0
 12 13  2  0
 13 14  1  0
 14 15  2  0
 15 16  1  0
 16 17  2  0
 17 18  1  0
 18 19  1  0
 18 20  1  0
 18 21  1  0
 17 22  1  0
 14 23  1  0
 22 23  2  0
 13 24  1  0
 10 25  1  0
 24 25  1  0
  7 26  1  0
  4 27  1  0
 26 27  1  0
M  END
