piperidine-amides-31764-covalent
     RDKit          3D

 28 30  0  0  0  0  0  0  0  0999 V2000
    7.0300   -3.4050   19.3350 C   0  0  0  0  0  0  0  0  0  0  0  0
    6.3690   -4.2070   20.3350 C   0  0  0  0  0  0  0  0  0  0  0  0
    5.3310   -4.8420   19.9790 O   0  0  0  0  0  0  0  0  0  0  0  0
    6.8460   -4.3680   21.6520 N   0  0  0  0  0  0  0  0  0  0  0  0
    6.3700   -5.5560   22.3900 C   0  0  0  0  0  0  0  0  0  0  0  0
    5.4700   -4.8410   23.4660 C   0  0  0  0  0  0  0  0  0  0  0  0
    6.4890   -4.2560   24.4050 C   0  0  0  0  0  0  0  0  0  0  0  0
    5.8720   -3.2950   25.5290 C   0  0  0  0  0  0  0  0  0  0  0  0
    5.8820   -2.1500   25.1260 O   0  0  0  0  0  0  0  0  0  0  0  0
    5.4820   -3.9360   26.5770 N   0  0  0  0  0  0  0  0  0  0  0  0
    4.6680   -4.6290   27.3710 C   0  0  0  0  0  0  0  0  0  0  0  0
    4.0590   -4.3430   28.5490 C   0  0  0  0  0  0  0  0  0  0  0  0
    4.9620   -4.1940   29.6150 C   0  0  0  0  0  0  0  0  0  0  0  0
    5.9850   -4.9900   29.6080 N   0  0  0  0  0  0  0  0  0  0  0  0
    5.5930   -6.3180   29.7900 C   0  0  0  0  0  0  0  0  0  0  0  0
    6.4940   -7.3680   29.7320 O   0  0  0  0  0  0  0  0  0  0  0  0
    4.1030   -6.6120   30.0460 C   0  0  0  0  0  0  0  0  0  0  0  0
    4.2260   -6.5080   31.4440 C   0  0  0  0  0  0  0  0  0  0  0  0
    3.3780   -5.4330   31.9530 C   0  0  0  0  0  0  0  0  0  0  0  0
    3.7130   -5.5740   33.4690 C   0  0  0  0  0  0  0  0  0  0  0  0
    4.6800   -6.6080   34.0680 C   0  0  0  0  0  0  0  0  0  0  0  0
    5.3320   -7.4880   33.3480 C   0  0  0  0  0  0  0  0  0  0  0  0
    6.1620   -8.3630   33.9880 F   0  0  0  0  0  0  0  0  0  0  0  0
    5.1050   -7.4350   32.0290 C   0  0  0  0  0  0  0  0  0  0  0  0
    6.7250   -4.6200   28.4710 C   0  0  0  0  0  0  0  0  0  0  0  0
    6.3090   -3.5100   27.6910 C   0  0  0  0  0  0  0  0  0  0  0  0
    7.7000   -3.6340   23.7780 C   0  0  0  0  0  0  0  0  0  0  0  0
    7.5410   -3.2900   22.3270 C   0  0  0  0  0  0  0  0  0  0  0  0
  1  2  1  0
  2  3  2  0
  2  4  1  0
  4  5  1  0
  5  6  1  0
  6  7  1  0
  7  8  1  0
  8  9  2  0
  8 10  1  0
 10 11  1  0
 11 12  1  0
 12 13  1  0
 13 14  1  0
 14 15  1  0
 15 16  2  0
 15 17  1  0
 17 18  1  0
 18 19  2  0
 19 20  1  0
 20 21  2  0
 21 22  1  0
 22 23  1  0
 18 24  1  0
 22 24  2  0
 14 25  1  0
 10 26  1  0
 25 26  1  0
  7 27  1  0
  4 28  1  0
 27 28  1  0
M  END
