piperidine-amides-27490-covalent
     RDKit          3D

 26 28  0  0  0  0  0  0  0  0999 V2000
    7.0520   -3.3530   19.3180 C   0  0  0  0  0  0  0  0  0  0  0  0
    6.4000   -4.1970   20.3230 C   0  0  0  0  0  0  0  0  0  0  0  0
    5.3610   -4.8090   19.9660 O   0  0  0  0  0  0  0  0  0  0  0  0
    6.9610   -4.3310   21.5960 N   0  0  0  0  0  0  0  0  0  0  0  0
    6.6640   -5.4720   22.4270 C   0  0  0  0  0  0  0  0  0  0  0  0
    5.9140   -4.9830   23.6390 C   0  0  0  0  0  0  0  0  0  0  0  0
    6.5970   -3.8240   24.3330 C   0  0  0  0  0  0  0  0  0  0  0  0
    5.7570   -3.2810   25.4330 C   0  0  0  0  0  0  0  0  0  0  0  0
    5.0360   -2.2970   25.1780 O   0  0  0  0  0  0  0  0  0  0  0  0
    5.6770   -3.8170   26.7400 N   0  0  0  0  0  0  0  0  0  0  0  0
    4.5100   -4.4530   27.2030 C   0  0  0  0  0  0  0  0  0  0  0  0
    4.8570   -5.2960   28.4280 C   0  0  0  0  0  0  0  0  0  0  0  0
    5.6600   -4.9220   29.4810 C   0  0  0  0  0  0  0  0  0  0  0  0
    6.0070   -5.9180   30.4400 O   0  0  0  0  0  0  0  0  0  0  0  0
    5.1100   -6.5260   31.2530 C   0  0  0  0  0  0  0  0  0  0  0  0
    3.8440   -5.9870   31.4290 C   0  0  0  0  0  0  0  0  0  0  0  0
    2.8860   -6.5700   32.2550 C   0  0  0  0  0  0  0  0  0  0  0  0
    3.0950   -7.7360   32.9800 C   0  0  0  0  0  0  0  0  0  0  0  0
    2.0320   -8.3370   33.8670 C   0  0  0  0  0  0  0  0  0  0  0  0
    2.3520   -8.6290   35.2320 N   0  0  0  0  0  0  0  0  0  0  0  0
    4.3210   -8.3080   32.8450 C   0  0  0  0  0  0  0  0  0  0  0  0
    5.3560   -7.6790   31.9520 C   0  0  0  0  0  0  0  0  0  0  0  0
    6.7480   -4.5080   28.5410 C   0  0  0  0  0  0  0  0  0  0  0  0
    6.4260   -3.3750   27.8180 C   0  0  0  0  0  0  0  0  0  0  0  0
    6.8540   -2.7210   23.3310 C   0  0  0  0  0  0  0  0  0  0  0  0
    7.7220   -3.2710   22.2190 C   0  0  0  0  0  0  0  0  0  0  0  0
  1  2  1  0
  2  3  2  0
  2  4  1  0
  4  5  1  0
  5  6  1  0
  6  7  1  0
  7  8  1  0
  8  9  2  0
  8 10  1  0
 10 11  1  0
 11 12  1  0
 12 13  1  0
 13 14  1  0
 14 15  1  0
 15 16  2  0
 16 17  1  0
 17 18  2  0
 18 19  1  0
 19 20  3  0
 18 21  1  0
 15 22  1  0
 21 22  2  0
 13 23  1  0
 10 24  1  0
 23 24  1  0
  7 25  1  0
  4 26  1  0
 25 26  1  0
M  END
