piperidine-amides-15083-covalent
     RDKit          3D

 20 20  0  0  0  0  0  0  0  0999 V2000
    7.0820   -3.2900   19.2870 C   0  0  0  0  0  0  0  0  0  0  0  0
    6.3870   -4.0860   20.2940 C   0  0  0  0  0  0  0  0  0  0  0  0
    5.3660   -4.7090   19.9460 O   0  0  0  0  0  0  0  0  0  0  0  0
    6.8970   -4.1690   21.6170 N   0  0  0  0  0  0  0  0  0  0  0  0
    7.7470   -3.1290   22.1480 C   0  0  0  0  0  0  0  0  0  0  0  0
    7.4880   -2.9470   23.6150 C   0  0  0  0  0  0  0  0  0  0  0  0
    6.1170   -3.5220   23.8570 C   0  0  0  0  0  0  0  0  0  0  0  0
    5.6470   -3.2440   25.2510 C   0  0  0  0  0  0  0  0  0  0  0  0
    4.4310   -3.2250   25.4140 O   0  0  0  0  0  0  0  0  0  0  0  0
    6.5940   -3.0190   26.2440 N   0  0  0  0  0  0  0  0  0  0  0  0
    6.3170   -3.1890   27.6330 C   0  0  0  0  0  0  0  0  0  0  0  0
    6.1990   -4.5120   28.0860 C   0  0  0  0  0  0  0  0  0  0  0  0
    5.1920   -4.8170   28.9650 C   0  0  0  0  0  0  0  0  0  0  0  0
    3.9560   -5.2410   28.3960 N   0  0  0  0  0  0  0  0  0  0  0  0
    2.9770   -5.4490   29.3880 C   0  0  0  0  0  0  0  0  0  0  0  0
    2.4930   -4.4110   30.1720 O   0  0  0  0  0  0  0  0  0  0  0  0
    2.5210   -6.5980   29.5770 O   0  0  0  0  0  0  0  0  0  0  0  0
    3.2990   -7.7050   29.1510 C   0  0  0  0  0  0  0  0  0  0  0  0
    6.0480   -5.0070   23.6660 C   0  0  0  0  0  0  0  0  0  0  0  0
    6.5940   -5.4100   22.3500 C   0  0  0  0  0  0  0  0  0  0  0  0
  1  2  1  0
  2  3  2  0
  2  4  1  0
  4  5  1  0
  5  6  1  0
  6  7  1  0
  7  8  1  0
  8  9  2  0
  8 10  1  0
 10 11  1  0
 11 12  1  0
 12 13  1  0
 13 14  1  0
 14 15  1  0
 15 16  2  0
 15 17  1  0
 17 18  1  0
  7 19  1  0
  4 20  1  0
 19 20  1  0
M  END
