piperidine-amides-27122-covalent
     RDKit          3D

 24 25  0  0  0  0  0  0  0  0999 V2000
    7.0680   -3.3610   19.3420 C   0  0  0  0  0  0  0  0  0  0  0  0
    6.4160   -4.2170   20.3370 C   0  0  0  0  0  0  0  0  0  0  0  0
    5.3590   -4.7890   19.9680 O   0  0  0  0  0  0  0  0  0  0  0  0
    6.9900   -4.4220   21.6030 N   0  0  0  0  0  0  0  0  0  0  0  0
    6.6320   -5.5450   22.4280 C   0  0  0  0  0  0  0  0  0  0  0  0
    5.9610   -5.0200   23.6720 C   0  0  0  0  0  0  0  0  0  0  0  0
    6.6820   -3.8380   24.2840 C   0  0  0  0  0  0  0  0  0  0  0  0
    5.8990   -3.2990   25.4160 C   0  0  0  0  0  0  0  0  0  0  0  0
    4.6890   -3.0480   25.2280 O   0  0  0  0  0  0  0  0  0  0  0  0
    6.4510   -3.0670   26.6860 N   0  0  0  0  0  0  0  0  0  0  0  0
    6.7010   -4.2180   27.5330 C   0  0  0  0  0  0  0  0  0  0  0  0
    6.4310   -1.7160   27.2460 C   0  0  0  0  0  0  0  0  0  0  0  0
    7.0130   -1.6620   28.4920 C   0  0  0  0  0  0  0  0  0  0  0  0
    7.0970   -0.4930   29.2190 C   0  0  0  0  0  0  0  0  0  0  0  0
    6.5780    0.6670   28.6710 C   0  0  0  0  0  0  0  0  0  0  0  0
    5.9970    0.6400   27.4240 C   0  0  0  0  0  0  0  0  0  0  0  0
    5.9220   -0.5360   26.7120 C   0  0  0  0  0  0  0  0  0  0  0  0
    5.1360   -0.1280   25.2380 S   0  0  0  0  0  0  0  0  0  0  0  0
    5.2820   -1.2060   24.2310 O   0  0  0  0  0  0  0  0  0  0  0  0
    5.6450    1.1960   24.7870 O   0  0  0  0  0  0  0  0  0  0  0  0
    3.4010    0.1120   25.5830 C   0  0  0  0  0  0  0  0  0  0  0  0
    2.4270    0.0720   24.4090 C   0  0  0  0  0  0  0  0  0  0  0  0
    6.9380   -2.7340   23.2520 C   0  0  0  0  0  0  0  0  0  0  0  0
    7.8150   -3.3880   22.2160 C   0  0  0  0  0  0  0  0  0  0  0  0
  1  2  1  0
  2  3  2  0
  2  4  1  0
  4  5  1  0
  5  6  1  0
  6  7  1  0
  7  8  1  0
  8  9  2  0
  8 10  1  0
 10 11  1  0
 10 12  1  0
 12 13  2  0
 13 14  1  0
 14 15  2  0
 15 16  1  0
 12 17  1  0
 16 17  2  0
 17 18  1  0
 18 19  2  0
 18 20  2  0
 18 21  1  0
 21 22  1  0
  7 23  1  0
  4 24  1  0
 23 24  1  0
M  END
