piperidine-amides-9090-covalent
     RDKit          3D

 21 22  0  0  0  0  0  0  0  0999 V2000
    7.1530   -3.2980   19.2030 C   0  0  0  0  0  0  0  0  0  0  0  0
    6.3410   -3.9980   20.1930 C   0  0  0  0  0  0  0  0  0  0  0  0
    5.2560   -4.4990   19.8640 O   0  0  0  0  0  0  0  0  0  0  0  0
    6.8090   -4.1520   21.4970 N   0  0  0  0  0  0  0  0  0  0  0  0
    7.7510   -3.2300   22.0930 C   0  0  0  0  0  0  0  0  0  0  0  0
    7.0370   -2.6620   23.2680 C   0  0  0  0  0  0  0  0  0  0  0  0
    6.5640   -3.7620   24.1520 C   0  0  0  0  0  0  0  0  0  0  0  0
    5.9210   -3.2200   25.3650 C   0  0  0  0  0  0  0  0  0  0  0  0
    4.7330   -3.5440   25.6760 O   0  0  0  0  0  0  0  0  0  0  0  0
    6.5980   -2.3120   26.2050 N   0  0  0  0  0  0  0  0  0  0  0  0
    6.1080   -2.0160   27.5650 C   0  0  0  0  0  0  0  0  0  0  0  0
    6.1720   -0.5500   27.7720 C   0  0  0  0  0  0  0  0  0  0  0  0
    6.6100   -0.0680   29.0950 C   0  0  0  0  0  0  0  0  0  0  0  0
    6.6770    1.4180   29.2990 C   0  0  0  0  0  0  0  0  0  0  0  0
    6.2960    2.3130   28.1490 C   0  0  0  0  0  0  0  0  0  0  0  0
    6.3500    3.7700   28.2880 N   0  0  0  0  0  0  0  0  0  0  0  0
    5.8720    1.6670   26.8800 C   0  0  0  0  0  0  0  0  0  0  0  0
    5.8240    0.2960   26.7370 C   0  0  0  0  0  0  0  0  0  0  0  0
    5.4230   -0.2360   25.5510 F   0  0  0  0  0  0  0  0  0  0  0  0
    5.6470   -4.7280   23.4390 C   0  0  0  0  0  0  0  0  0  0  0  0
    6.4250   -5.3070   22.2770 C   0  0  0  0  0  0  0  0  0  0  0  0
  1  2  1  0
  2  3  2  0
  2  4  1  0
  4  5  1  0
  5  6  1  0
  6  7  1  0
  7  8  1  0
  8  9  2  0
  8 10  1  0
 10 11  1  0
 11 12  1  0
 12 13  2  0
 13 14  1  0
 14 15  2  0
 15 16  1  0
 15 17  1  0
 12 18  1  0
 17 18  2  0
 18 19  1  0
  7 20  1  0
  4 21  1  0
 20 21  1  0
M  END
