piperidine-amides-2905-covalent
     RDKit          3D

 24 25  0  0  0  0  0  0  0  0999 V2000
    7.1540   -3.2920   19.2470 C   0  0  0  0  0  0  0  0  0  0  0  0
    6.3380   -4.0250   20.2020 C   0  0  0  0  0  0  0  0  0  0  0  0
    5.2590   -4.5090   19.8670 O   0  0  0  0  0  0  0  0  0  0  0  0
    6.8400   -4.2310   21.5260 N   0  0  0  0  0  0  0  0  0  0  0  0
    7.6510   -3.2200   22.1500 C   0  0  0  0  0  0  0  0  0  0  0  0
    6.9270   -2.7020   23.3470 C   0  0  0  0  0  0  0  0  0  0  0  0
    6.6650   -3.8950   24.2420 C   0  0  0  0  0  0  0  0  0  0  0  0
    5.8900   -3.4310   25.4090 C   0  0  0  0  0  0  0  0  0  0  0  0
    4.6610   -3.2170   25.3660 O   0  0  0  0  0  0  0  0  0  0  0  0
    6.5970   -3.2250   26.6010 N   0  0  0  0  0  0  0  0  0  0  0  0
    6.1350   -3.8770   27.7960 C   0  0  1  0  0  0  0  0  0  0  0  0
    7.1090   -4.9620   28.2170 C   0  0  0  0  0  0  0  0  0  0  0  0
    5.9820   -2.8290   28.8400 C   0  0  0  0  0  0  0  0  0  0  0  0
    6.9380   -1.8240   28.9910 C   0  0  0  0  0  0  0  0  0  0  0  0
    6.7880   -0.8570   29.9600 C   0  0  0  0  0  0  0  0  0  0  0  0
    5.6340   -0.8490   30.8510 C   0  0  0  0  0  0  0  0  0  0  0  0
    5.3880    0.0590   31.8550 C   0  0  0  0  0  0  0  0  0  0  0  0
    4.6830   -0.3210   32.9780 C   0  0  0  0  0  0  0  0  0  0  0  0
    4.6970    1.2400   31.1990 C   0  0  0  0  0  0  0  0  0  0  0  0
    6.6810    0.6230   32.3550 C   0  0  0  0  0  0  0  0  0  0  0  0
    4.6980   -1.8480   30.6820 C   0  0  0  0  0  0  0  0  0  0  0  0
    4.8810   -2.8070   29.6980 C   0  0  0  0  0  0  0  0  0  0  0  0
    5.8410   -4.9450   23.5330 C   0  0  0  0  0  0  0  0  0  0  0  0
    6.5520   -5.4290   22.2610 C   0  0  0  0  0  0  0  0  0  0  0  0
  1  2  1  0
  2  3  2  0
  2  4  1  0
  4  5  1  0
  5  6  1  0
  6  7  1  0
  7  8  1  0
  8  9  2  0
  8 10  1  0
 10 11  1  0
 11 12  1  1
 11 13  1  0
 13 14  2  0
 14 15  1  0
 15 16  2  0
 16 17  1  0
 17 18  1  0
 17 19  1  0
 17 20  1  0
 16 21  1  0
 13 22  1  0
 21 22  2  0
  7 23  1  0
  4 24  1  0
 23 24  1  0
M  END
