piperidine-amides-2874-covalent
     RDKit          3D

 24 26  0  0  0  0  0  0  0  0999 V2000
    7.1820   -3.9720   19.6390 C   0  0  0  0  0  0  0  0  0  0  0  0
    5.9610   -3.8530   20.2780 C   0  0  0  0  0  0  0  0  0  0  0  0
    4.9650   -3.9470   19.5740 O   0  0  0  0  0  0  0  0  0  0  0  0
    6.0070   -3.7570   21.6850 N   0  0  0  0  0  0  0  0  0  0  0  0
    5.7320   -4.9960   22.3680 C   0  0  0  0  0  0  0  0  0  0  0  0
    5.5430   -4.7580   23.8280 C   0  0  0  0  0  0  0  0  0  0  0  0
    6.5850   -3.7660   24.3200 C   0  0  0  0  0  0  0  0  0  0  0  0
    6.1710   -3.2660   25.6430 C   0  0  0  0  0  0  0  0  0  0  0  0
    4.9870   -2.9460   25.8860 O   0  0  0  0  0  0  0  0  0  0  0  0
    7.1670   -3.1560   26.6390 N   0  0  0  0  0  0  0  0  0  0  0  0
    7.5090   -4.3410   27.3930 C   0  0  0  0  0  0  0  0  0  0  0  0
    6.2050   -4.9560   27.8390 C   0  0  0  0  0  0  0  0  0  0  0  0
    5.5950   -6.1890   27.6720 C   0  0  0  0  0  0  0  0  0  0  0  0
    4.3080   -6.2560   28.3310 N   0  0  0  0  0  0  0  0  0  0  0  0
    4.1400   -5.0640   28.8960 N   0  0  0  0  0  0  0  0  0  0  0  0
    5.2220   -4.1400   28.6890 C   0  0  0  0  0  0  0  0  0  0  0  0
    5.4380   -2.8340   29.1010 C   0  0  0  0  0  0  0  0  0  0  0  0
    6.7480   -2.1800   29.1030 C   0  0  0  0  0  0  0  0  0  0  0  0
    6.8920   -0.8860   29.5380 C   0  0  0  0  0  0  0  0  0  0  0  0
    5.8290   -0.1440   29.9840 C   0  0  0  0  0  0  0  0  0  0  0  0
    4.5590   -0.7050   30.0030 C   0  0  0  0  0  0  0  0  0  0  0  0
    4.3540   -2.0870   29.5500 C   0  0  0  0  0  0  0  0  0  0  0  0
    6.8110   -2.5710   23.4160 C   0  0  0  0  0  0  0  0  0  0  0  0
    7.1600   -3.0610   22.1800 C   0  0  0  0  0  0  0  0  0  0  0  0
  1  2  1  0
  2  3  2  0
  2  4  1  0
  4  5  1  0
  5  6  1  0
  6  7  1  0
  7  8  1  0
  8  9  2  0
  8 10  1  0
 10 11  1  0
 11 12  1  0
 12 13  2  0
 13 14  1  0
 14 15  1  0
 12 16  1  0
 15 16  2  0
 16 17  1  0
 17 18  2  0
 18 19  1  0
 19 20  2  0
 20 21  1  0
 17 22  1  0
 21 22  2  0
  7 23  1  0
  4 24  1  0
 23 24  1  0
M  END
