piperidine-amides-23438-covalent
     RDKit          3D

 24 26  0  0  0  0  0  0  0  0999 V2000
    7.0440   -3.3580   19.3900 C   0  0  0  0  0  0  0  0  0  0  0  0
    6.3960   -4.2280   20.3900 C   0  0  0  0  0  0  0  0  0  0  0  0
    5.3960   -4.8770   19.9910 O   0  0  0  0  0  0  0  0  0  0  0  0
    6.8950   -4.3700   21.7150 N   0  0  0  0  0  0  0  0  0  0  0  0
    6.4500   -5.4660   22.5020 C   0  0  0  0  0  0  0  0  0  0  0  0
    5.8990   -5.0920   23.8100 C   0  0  0  0  0  0  0  0  0  0  0  0
    6.2910   -3.7620   24.3500 C   0  0  0  0  0  0  0  0  0  0  0  0
    5.2520   -3.2170   25.3310 C   0  0  0  0  0  0  0  0  0  0  0  0
    4.3990   -2.4180   24.9220 O   0  0  0  0  0  0  0  0  0  0  0  0
    5.2400   -3.6010   26.7070 N   0  0  0  0  0  0  0  0  0  0  0  0
    6.3080   -4.1290   27.2550 C   0  0  0  0  0  0  0  0  0  0  0  0
    6.3630   -4.1000   28.6610 C   0  0  0  0  0  0  0  0  0  0  0  0
    4.9950   -3.4580   28.9650 C   0  0  2  0  0  0  0  0  0  0  0  0
    4.1530   -4.3320   29.6490 C   0  0  0  0  0  0  0  0  0  0  0  0
    3.8230   -5.0670   28.3430 C   0  0  0  0  0  0  0  0  0  0  0  0
    2.5160   -4.4790   27.9210 C   0  0  0  0  0  0  0  0  0  0  0  0
    2.1420   -5.1950   26.5970 C   0  0  0  0  0  0  0  0  0  0  0  0
    2.8550   -6.2740   25.7950 C   0  0  0  0  0  0  0  0  0  0  0  0
    4.1670   -6.7460   26.3870 C   0  0  0  0  0  0  0  0  0  0  0  0
    4.6570   -6.1270   27.6910 C   0  0  0  0  0  0  0  0  0  0  0  0
    5.7730   -6.5570   28.1630 O   0  0  0  0  0  0  0  0  0  0  0  0
    4.5070   -2.9090   27.7350 C   0  0  0  0  0  0  0  0  0  0  0  0
    6.6460   -2.7730   23.2740 C   0  0  0  0  0  0  0  0  0  0  0  0
    7.5720   -3.2870   22.3770 C   0  0  0  0  0  0  0  0  0  0  0  0
  1  2  1  0
  2  3  2  0
  2  4  1  0
  4  5  1  0
  5  6  1  0
  6  7  1  0
  7  8  1  0
  8  9  2  0
  8 10  1  0
 10 11  1  0
 11 12  1  0
 12 13  1  0
 13 14  1  6
 14 15  1  0
 15 16  2  0
 16 17  1  0
 17 18  2  0
 18 19  1  0
 15 20  1  0
 19 20  2  0
 20 21  1  0
 10 22  1  0
 13 22  1  0
  7 23  1  0
  4 24  1  0
 23 24  1  0
M  END
