piperidine-amides-31707-covalent
     RDKit          3D

 28 31  0  0  0  0  0  0  0  0999 V2000
    7.0340   -3.3620   19.4830 C   0  0  0  0  0  0  0  0  0  0  0  0
    6.3570   -4.2150   20.4410 C   0  0  0  0  0  0  0  0  0  0  0  0
    5.4440   -4.9910   20.0090 O   0  0  0  0  0  0  0  0  0  0  0  0
    6.6910   -4.2130   21.8170 N   0  0  0  0  0  0  0  0  0  0  0  0
    6.5630   -5.5010   22.5630 C   0  0  0  0  0  0  0  0  0  0  0  0
    5.8450   -5.1280   23.9520 C   0  0  0  0  0  0  0  0  0  0  0  0
    5.9880   -3.6380   24.1840 C   0  0  0  0  0  0  0  0  0  0  0  0
    5.1850   -2.9860   25.4450 C   0  0  0  0  0  0  0  0  0  0  0  0
    4.8880   -1.8510   25.1370 O   0  0  0  0  0  0  0  0  0  0  0  0
    5.0210   -3.7730   26.4610 N   0  0  0  0  0  0  0  0  0  0  0  0
    4.4780   -4.6050   27.3730 C   0  0  1  0  0  0  0  0  0  0  0  0
    4.9110   -5.8320   27.6940 C   0  0  0  0  0  0  0  0  0  0  0  0
    6.1800   -5.6440   27.1580 C   0  0  0  0  0  0  0  0  0  0  0  0
    6.3250   -4.1550   27.0350 C   0  0  2  0  0  0  0  0  0  0  0  0
    6.6490   -4.1910   28.5650 C   0  0  0  0  0  0  0  0  0  0  0  0
    5.7520   -3.2020   28.8290 C   0  0  1  0  0  0  0  0  0  0  0  0
    5.7630   -2.8280   30.0040 O   0  0  0  0  0  0  0  0  0  0  0  0
    6.0820   -2.0280   28.1020 C   0  0  0  0  0  0  0  0  0  0  0  0
    4.8890   -1.6850   29.0150 C   0  0  0  0  0  0  0  0  0  0  0  0
    5.0490   -1.2070   30.5000 C   0  0  0  0  0  0  0  0  0  0  0  0
    3.9140   -0.9150   31.2390 C   0  0  0  0  0  0  0  0  0  0  0  0
    2.6530   -1.0380   30.6820 C   0  0  0  0  0  0  0  0  0  0  0  0
    1.5530   -0.7450   31.4230 F   0  0  0  0  0  0  0  0  0  0  0  0
    2.5430   -1.4490   29.3950 C   0  0  0  0  0  0  0  0  0  0  0  0
    3.5910   -1.7650   28.5710 C   0  0  0  0  0  0  0  0  0  0  0  0
    4.5330   -3.8670   28.6560 C   0  0  0  0  0  0  0  0  0  0  0  0
    7.2940   -3.0240   23.8150 C   0  0  0  0  0  0  0  0  0  0  0  0
    7.6140   -3.2630   22.3790 C   0  0  0  0  0  0  0  0  0  0  0  0
  1  2  1  0
  2  3  2  0
  2  4  1  0
  4  5  1  0
  5  6  1  0
  6  7  1  0
  7  8  1  0
  8  9  2  0
  8 10  1  0
 10 11  1  0
 11 12  1  1
 12 13  1  0
 10 14  1  0
 14 13  1  1
 14 15  1  0
 15 16  1  0
 16 17  1  1
 16 18  1  0
 18 19  1  0
 19 20  2  0
 20 21  1  0
 21 22  2  0
 22 23  1  0
 22 24  1  0
 19 25  1  0
 24 25  2  0
 11 26  1  0
 16 26  1  0
  7 27  1  0
  4 28  1  0
 27 28  1  0
M  END
