piperidine-amides-19173-covalent
     RDKit          3D

 22 24  0  0  0  0  0  0  0  0999 V2000
    7.0550   -3.3490   19.4530 C   0  0  0  0  0  0  0  0  0  0  0  0
    6.3650   -4.1850   20.4190 C   0  0  0  0  0  0  0  0  0  0  0  0
    5.4390   -4.9510   19.9990 O   0  0  0  0  0  0  0  0  0  0  0  0
    6.7010   -4.1840   21.7890 N   0  0  0  0  0  0  0  0  0  0  0  0
    6.5600   -5.4820   22.5130 C   0  0  0  0  0  0  0  0  0  0  0  0
    6.3310   -5.0420   24.0270 C   0  0  0  0  0  0  0  0  0  0  0  0
    6.0440   -3.5600   23.9860 C   0  0  0  0  0  0  0  0  0  0  0  0
    5.2920   -2.8490   25.2230 C   0  0  0  0  0  0  0  0  0  0  0  0
    4.4880   -2.0670   24.7580 O   0  0  0  0  0  0  0  0  0  0  0  0
    5.6460   -3.2330   26.3930 N   0  0  0  0  0  0  0  0  0  0  0  0
    5.4720   -3.4480   27.7090 C   0  0  0  0  0  0  0  0  0  0  0  0
    5.7900   -4.4990   28.4140 C   0  0  0  0  0  0  0  0  0  0  0  0
    6.9180   -4.7700   27.6940 C   0  0  0  0  0  0  0  0  0  0  0  0
    8.0040   -5.7690   28.2070 C   0  0  0  0  0  0  0  0  0  0  0  0
    9.2940   -5.9730   27.2680 C   0  0  0  0  0  0  0  0  0  0  0  0
    8.9990   -5.1590   26.3100 C   0  0  0  0  0  0  0  0  0  0  0  0
    9.5680   -4.8240   25.2640 O   0  0  0  0  0  0  0  0  0  0  0  0
    9.2950   -3.6740   24.5880 C   0  0  0  0  0  0  0  0  0  0  0  0
    7.8260   -4.8750   26.9770 C   0  0  0  0  0  0  0  0  0  0  0  0
    6.9300   -3.9490   26.3470 C   0  0  0  0  0  0  0  0  0  0  0  0
    7.2470   -2.7520   23.4890 C   0  0  0  0  0  0  0  0  0  0  0  0
    7.6810   -3.2180   22.2770 C   0  0  0  0  0  0  0  0  0  0  0  0
  1  2  1  0
  2  3  2  0
  2  4  1  0
  4  5  1  0
  5  6  1  0
  6  7  1  0
  7  8  1  0
  8  9  2  0
  8 10  1  0
 10 11  1  0
 11 12  1  0
 12 13  1  0
 13 14  1  0
 14 15  2  0
 15 16  1  0
 16 17  1  0
 17 18  1  0
 16 19  2  0
 10 20  1  0
 13 20  2  0
 19 20  1  0
  7 21  1  0
  4 22  1  0
 21 22  1  0
M  END
