piperidine-amides-6345-covalent
     RDKit          3D

 25 27  0  0  0  0  0  0  0  0999 V2000
    7.0400   -3.3240   19.3400 C   0  0  0  0  0  0  0  0  0  0  0  0
    6.3730   -4.1790   20.3370 C   0  0  0  0  0  0  0  0  0  0  0  0
    5.3860   -4.8630   19.9870 O   0  0  0  0  0  0  0  0  0  0  0  0
    6.8420   -4.2820   21.6600 N   0  0  0  0  0  0  0  0  0  0  0  0
    6.5910   -5.5170   22.3680 C   0  0  0  0  0  0  0  0  0  0  0  0
    6.1540   -5.1690   23.8020 C   0  0  0  0  0  0  0  0  0  0  0  0
    6.0570   -3.6590   23.9050 C   0  0  0  0  0  0  0  0  0  0  0  0
    5.6530   -3.2510   25.2710 C   0  0  0  0  0  0  0  0  0  0  0  0
    4.4390   -3.2950   25.5830 O   0  0  0  0  0  0  0  0  0  0  0  0
    6.6370   -2.8070   26.1810 N   0  0  0  0  0  0  0  0  0  0  0  0
    6.4700   -1.5790   26.9160 C   0  0  0  0  0  0  0  0  0  0  0  0
    6.9890   -1.6150   28.3360 C   0  0  0  0  0  0  0  0  0  0  0  0
    6.9050   -0.5210   29.1560 C   0  0  0  0  0  0  0  0  0  0  0  0
    6.3290    0.6410   28.6790 C   0  0  0  0  0  0  0  0  0  0  0  0
    6.1410    1.8290   29.3090 C   0  0  0  0  0  0  0  0  0  0  0  0
    5.5420    2.7070   28.4970 N   0  0  0  0  0  0  0  0  0  0  0  0
    5.3260    2.0980   27.3100 N   0  0  0  0  0  0  0  0  0  0  0  0
    4.6970    2.6860   26.1360 C   0  0  0  0  0  0  0  0  0  0  0  0
    5.7830    3.2230   25.2200 C   0  0  0  0  0  0  0  0  0  0  0  0
    4.8620    4.2500   25.8410 C   0  0  0  0  0  0  0  0  0  0  0  0
    4.1570    4.7310   24.9120 O   0  0  0  0  0  0  0  0  0  0  0  0
    5.8460    0.7190   27.4110 C   0  0  0  0  0  0  0  0  0  0  0  0
    5.9050   -0.4070   26.4790 C   0  0  0  0  0  0  0  0  0  0  0  0
    7.3810   -3.0620   23.5540 C   0  0  0  0  0  0  0  0  0  0  0  0
    7.6290   -3.2220   22.2240 C   0  0  0  0  0  0  0  0  0  0  0  0
  1  2  1  0
  2  3  2  0
  2  4  1  0
  4  5  1  0
  5  6  1  0
  6  7  1  0
  7  8  1  0
  8  9  2  0
  8 10  1  0
 10 11  1  0
 11 12  2  0
 12 13  1  0
 13 14  2  0
 14 15  1  0
 15 16  2  0
 16 17  1  0
 17 18  1  0
 18 19  1  0
 19 20  1  0
 20 21  1  0
 14 22  1  0
 17 22  1  0
 11 23  1  0
 22 23  2  0
  7 24  1  0
  4 25  1  0
 24 25  1  0
M  END
