piperidine-amides-32831-covalent
     RDKit          3D

 29 31  0  0  0  0  0  0  0  0999 V2000
    7.1630   -3.2510   19.1810 C   0  0  0  0  0  0  0  0  0  0  0  0
    6.3870   -4.0310   20.1820 C   0  0  0  0  0  0  0  0  0  0  0  0
    5.2800   -4.4950   19.8610 O   0  0  0  0  0  0  0  0  0  0  0  0
    6.9480   -4.2850   21.4420 N   0  0  0  0  0  0  0  0  0  0  0  0
    6.5970   -5.4750   22.1620 C   0  0  0  0  0  0  0  0  0  0  0  0
    5.6970   -5.0000   23.2950 C   0  0  0  0  0  0  0  0  0  0  0  0
    6.4650   -3.9660   24.0460 C   0  0  0  0  0  0  0  0  0  0  0  0
    5.6300   -3.2820   25.0370 C   0  0  0  0  0  0  0  0  0  0  0  0
    4.8070   -2.4700   24.6130 O   0  0  0  0  0  0  0  0  0  0  0  0
    5.7740   -3.5740   26.3740 N   0  0  0  0  0  0  0  0  0  0  0  0
    4.7250   -3.9930   27.2270 C   0  0  0  0  0  0  0  0  0  0  0  0
    4.9120   -4.6610   28.4080 C   0  0  0  0  0  0  0  0  0  0  0  0
    5.6950   -4.0510   29.3610 C   0  0  0  0  0  0  0  0  0  0  0  0
    5.2860   -2.8540   29.9030 C   0  0  0  0  0  0  0  0  0  0  0  0
    5.9880   -1.7500   30.1150 O   0  0  0  0  0  0  0  0  0  0  0  0
    3.9880   -2.7470   30.2820 N   0  0  0  0  0  0  0  0  0  0  0  0
    3.6880   -1.8990   31.2820 C   0  0  0  0  0  0  0  0  0  0  0  0
    2.6180   -0.8410   30.9880 C   0  0  0  0  0  0  0  0  0  0  0  0
    3.2660    0.4010   30.3610 C   0  0  0  0  0  0  0  0  0  0  0  0
    2.4840    1.4930   30.0110 C   0  0  0  0  0  0  0  0  0  0  0  0
    1.0050    1.5400   30.2110 C   0  0  0  0  0  0  0  0  0  0  0  0
    0.2610    2.6690   29.8420 O   0  0  0  0  0  0  0  0  0  0  0  0
   -1.1560    2.6020   29.6860 C   0  0  0  0  0  0  0  0  0  0  0  0
    0.3470    0.3340   30.8230 C   0  0  0  0  0  0  0  0  0  0  0  0
    1.1610   -0.8980   31.2280 C   0  0  0  0  0  0  0  0  0  0  0  0
    6.7230   -3.9530   28.5070 C   0  0  0  0  0  0  0  0  0  0  0  0
    6.3410   -2.8990   27.4820 C   0  0  0  0  0  0  0  0  0  0  0  0
    7.0020   -2.8170   23.2220 C   0  0  0  0  0  0  0  0  0  0  0  0
    7.6480   -3.2140   22.0770 C   0  0  0  0  0  0  0  0  0  0  0  0
  1  2  1  0
  2  3  2  0
  2  4  1  0
  4  5  1  0
  5  6  1  0
  6  7  1  0
  7  8  1  0
  8  9  2  0
  8 10  1  0
 10 11  1  0
 11 12  1  0
 12 13  1  0
 13 14  1  0
 14 15  2  0
 14 16  1  0
 16 17  1  0
 17 18  1  0
 18 19  2  0
 19 20  1  0
 20 21  2  0
 21 22  1  0
 22 23  1  0
 21 24  1  0
 18 25  1  0
 24 25  2  0
 13 26  1  0
 10 27  1  0
 26 27  1  0
  7 28  1  0
  4 29  1  0
 28 29  1  0
M  END
