piperidine-amides-23787-covalent
     RDKit          3D

 24 26  0  0  0  0  0  0  0  0999 V2000
    7.1230   -3.3220   19.2580 C   0  0  0  0  0  0  0  0  0  0  0  0
    6.4180   -4.1220   20.2690 C   0  0  0  0  0  0  0  0  0  0  0  0
    5.3240   -4.6300   19.9200 O   0  0  0  0  0  0  0  0  0  0  0  0
    6.9890   -4.3700   21.5400 N   0  0  0  0  0  0  0  0  0  0  0  0
    6.5430   -5.5000   22.2640 C   0  0  0  0  0  0  0  0  0  0  0  0
    6.0710   -5.1730   23.5990 C   0  0  0  0  0  0  0  0  0  0  0  0
    6.6690   -3.9590   24.1980 C   0  0  0  0  0  0  0  0  0  0  0  0
    5.7450   -3.4140   25.2270 C   0  0  0  0  0  0  0  0  0  0  0  0
    4.7610   -2.7400   24.8790 O   0  0  0  0  0  0  0  0  0  0  0  0
    5.9500   -3.6540   26.5780 N   0  0  0  0  0  0  0  0  0  0  0  0
    4.9940   -4.1690   27.4680 C   0  0  0  0  0  0  0  0  0  0  0  0
    5.4330   -5.0520   28.5120 C   0  0  0  0  0  0  0  0  0  0  0  0
    6.8420   -4.6070   28.8650 C   0  0  0  0  0  0  0  0  0  0  0  0
    7.7950   -4.7080   27.8780 C   0  0  0  0  0  0  0  0  0  0  0  0
    7.3040   -3.4610   27.0950 C   0  0  2  0  0  0  0  0  0  0  0  0
    7.2230   -2.4830   28.2420 C   0  0  0  0  0  0  0  0  0  0  0  0
    5.7190   -2.3390   28.4710 C   0  0  0  0  0  0  0  0  0  0  0  0
    5.1310   -1.4470   29.5350 C   0  0  0  0  0  0  0  0  0  0  0  0
    6.1510   -0.6890   30.3730 C   0  0  0  0  0  0  0  0  0  0  0  0
    5.7220    0.1480   31.3650 F   0  0  0  0  0  0  0  0  0  0  0  0
    7.6600   -0.8650   30.0990 C   0  0  0  0  0  0  0  0  0  0  0  0
    8.1000   -1.7850   29.0100 C   0  0  0  0  0  0  0  0  0  0  0  0
    6.9970   -2.8700   23.2330 C   0  0  0  0  0  0  0  0  0  0  0  0
    7.7630   -3.3550   22.2080 C   0  0  0  0  0  0  0  0  0  0  0  0
  1  2  1  0
  2  3  2  0
  2  4  1  0
  4  5  1  0
  5  6  1  0
  6  7  1  0
  7  8  1  0
  8  9  2  0
  8 10  1  0
 10 11  1  0
 11 12  1  0
 12 13  1  0
 13 14  1  0
 10 15  1  0
 14 15  1  0
 15 16  1  1
 16 17  2  0
 17 18  1  0
 18 19  2  0
 19 20  1  0
 19 21  1  0
 16 22  1  0
 21 22  2  0
  7 23  1  0
  4 24  1  0
 23 24  1  0
M  END
