piperidine-amides-2535-covalent
     RDKit          3D

 26 28  0  0  0  0  0  0  0  0999 V2000
    7.0180   -3.3400   19.3700 C   0  0  0  0  0  0  0  0  0  0  0  0
    6.3630   -4.2030   20.3890 C   0  0  0  0  0  0  0  0  0  0  0  0
    5.4290   -4.9050   19.9960 O   0  0  0  0  0  0  0  0  0  0  0  0
    6.8280   -4.2150   21.7120 N   0  0  0  0  0  0  0  0  0  0  0  0
    7.7310   -3.2020   22.2120 C   0  0  0  0  0  0  0  0  0  0  0  0
    7.4130   -2.9150   23.6490 C   0  0  0  0  0  0  0  0  0  0  0  0
    6.0350   -3.5000   23.9400 C   0  0  0  0  0  0  0  0  0  0  0  0
    5.6070   -3.1740   25.3220 C   0  0  0  0  0  0  0  0  0  0  0  0
    4.3940   -3.0800   25.5600 O   0  0  0  0  0  0  0  0  0  0  0  0
    6.5290   -2.9660   26.3630 N   0  0  0  0  0  0  0  0  0  0  0  0
    6.4860   -1.7380   27.1390 C   0  0  0  0  0  0  0  0  0  0  0  0
    5.8140   -0.5340   26.5760 C   0  0  0  0  0  0  0  0  0  0  0  0
    5.7060    0.6770   27.2020 C   0  0  0  0  0  0  0  0  0  0  0  0
    6.2620    0.7990   28.4560 C   0  0  0  0  0  0  0  0  0  0  0  0
    6.9100   -0.2750   29.0600 C   0  0  0  0  0  0  0  0  0  0  0  0
    7.5610   -0.2900   30.4240 C   0  0  0  0  0  0  0  0  0  0  0  0
    6.6540   -0.3800   31.4510 O   0  0  0  0  0  0  0  0  0  0  0  0
    6.5330    0.7000   32.3260 C   0  0  0  0  0  0  0  0  0  0  0  0
    5.1400    1.2630   32.2380 C   0  0  0  0  0  0  0  0  0  0  0  0
    4.3010    0.9970   31.0430 C   0  0  0  0  0  0  0  0  0  0  0  0
    3.0670    1.6950   31.3420 C   0  0  0  0  0  0  0  0  0  0  0  0
    3.2520    2.3320   32.6940 C   0  0  0  0  0  0  0  0  0  0  0  0
    4.4800    2.0670   33.2130 O   0  0  0  0  0  0  0  0  0  0  0  0
    7.0480   -1.5250   28.4700 C   0  0  0  0  0  0  0  0  0  0  0  0
    6.0240   -5.0150   23.7380 C   0  0  0  0  0  0  0  0  0  0  0  0
    6.6360   -5.3930   22.5500 C   0  0  0  0  0  0  0  0  0  0  0  0
  1  2  1  0
  2  3  2  0
  2  4  1  0
  4  5  1  0
  5  6  1  0
  6  7  1  0
  7  8  1  0
  8  9  2  0
  8 10  1  0
 10 11  1  0
 11 12  2  0
 12 13  1  0
 13 14  2  0
 14 15  1  0
 15 16  1  0
 16 17  1  0
 17 18  1  0
 18 19  1  0
 19 20  2  0
 20 21  1  0
 21 22  2  0
 19 23  1  0
 22 23  1  0
 11 24  1  0
 15 24  2  0
  7 25  1  0
  4 26  1  0
 25 26  1  0
M  END
