piperidine-amides-23996-covalent
     RDKit          3D

 24 26  0  0  0  0  0  0  0  0999 V2000
    6.9900   -3.2160   19.1760 C   0  0  0  0  0  0  0  0  0  0  0  0
    6.2140   -4.0140   20.1440 C   0  0  0  0  0  0  0  0  0  0  0  0
    5.1030   -4.4300   19.7850 O   0  0  0  0  0  0  0  0  0  0  0  0
    6.7150   -4.3410   21.4100 N   0  0  0  0  0  0  0  0  0  0  0  0
    6.0790   -5.4150   22.1120 C   0  0  0  0  0  0  0  0  0  0  0  0
    5.7000   -5.1030   23.4860 C   0  0  0  0  0  0  0  0  0  0  0  0
    6.3990   -3.9370   24.0450 C   0  0  0  0  0  0  0  0  0  0  0  0
    5.8150   -3.4510   25.3120 C   0  0  0  0  0  0  0  0  0  0  0  0
    4.6000   -3.1810   25.3960 O   0  0  0  0  0  0  0  0  0  0  0  0
    6.6480   -3.3000   26.4170 N   0  0  0  0  0  0  0  0  0  0  0  0
    7.5600   -2.2120   26.5400 C   0  0  0  0  0  0  0  0  0  0  0  0
    8.7470   -2.0740   25.6650 C   0  0  0  0  0  0  0  0  0  0  0  0
    8.6250   -2.2850   24.1630 C   0  0  0  0  0  0  0  0  0  0  0  0
    9.8800   -2.0710   23.7710 C   0  0  0  0  0  0  0  0  0  0  0  0
   10.0990   -2.2090   22.2810 C   0  0  0  0  0  0  0  0  0  0  0  0
   10.2410   -0.8230   22.1560 C   0  0  0  0  0  0  0  0  0  0  0  0
   11.5250   -1.7890   21.8980 C   0  0  0  0  0  0  0  0  0  0  0  0
   10.7820   -1.7630   24.7130 O   0  0  0  0  0  0  0  0  0  0  0  0
   10.0910   -1.7720   25.8400 N   0  0  0  0  0  0  0  0  0  0  0  0
    6.6520   -4.1620   27.5580 C   0  0  0  0  0  0  0  0  0  0  0  0
    7.9160   -4.4260   28.3020 C   0  0  0  0  0  0  0  0  0  0  0  0
    6.3010   -5.5370   27.0600 C   0  0  0  0  0  0  0  0  0  0  0  0
    6.4760   -2.8580   23.0250 C   0  0  0  0  0  0  0  0  0  0  0  0
    7.4350   -3.3460   22.1610 C   0  0  0  0  0  0  0  0  0  0  0  0
  1  2  1  0
  2  3  2  0
  2  4  1  0
  4  5  1  0
  5  6  1  0
  6  7  1  0
  7  8  1  0
  8  9  2  0
  8 10  1  0
 10 11  1  0
 11 12  1  0
 12 13  1  0
 13 14  2  0
 14 15  1  0
 15 16  1  0
 15 17  1  0
 16 17  1  0
 14 18  1  0
 12 19  2  0
 18 19  1  0
 10 20  1  0
 20 21  1  0
 20 22  1  0
  7 23  1  0
  4 24  1  0
 23 24  1  0
M  END
