piperidine-amides-23673-covalent
     RDKit          3D

 24 25  0  0  0  0  0  0  0  0999 V2000
    7.0980   -3.2820   19.2040 C   0  0  0  0  0  0  0  0  0  0  0  0
    6.3420   -4.0270   20.2250 C   0  0  0  0  0  0  0  0  0  0  0  0
    5.2510   -4.5250   19.8700 O   0  0  0  0  0  0  0  0  0  0  0  0
    6.8500   -4.2290   21.5310 N   0  0  0  0  0  0  0  0  0  0  0  0
    7.5840   -3.1810   22.1420 C   0  0  0  0  0  0  0  0  0  0  0  0
    7.3910   -3.0490   23.5800 C   0  0  0  0  0  0  0  0  0  0  0  0
    6.5570   -4.0890   24.2360 C   0  0  0  0  0  0  0  0  0  0  0  0
    5.6720   -3.4500   25.2590 C   0  0  0  0  0  0  0  0  0  0  0  0
    4.4380   -3.6300   25.2250 O   0  0  0  0  0  0  0  0  0  0  0  0
    6.2120   -2.6340   26.2580 N   0  0  0  0  0  0  0  0  0  0  0  0
    6.9900   -1.4770   26.0570 C   0  0  0  0  0  0  0  0  0  0  0  0
    6.5580   -3.2550   27.4950 C   0  0  1  0  0  0  0  0  0  0  0  0
    7.9430   -3.8730   27.5070 C   0  0  0  0  0  0  0  0  0  0  0  0
    7.7680   -5.2790   27.2110 N   0  0  0  0  0  0  0  0  0  0  0  0
    7.1040   -5.8720   28.3220 C   0  0  0  0  0  0  0  0  0  0  0  0
    8.8900   -5.9220   26.6350 C   0  0  0  0  0  0  0  0  0  0  0  0
    6.6360   -2.3060   28.6360 C   0  0  0  0  0  0  0  0  0  0  0  0
    5.3430   -1.9660   29.3750 C   0  0  0  0  0  0  0  0  0  0  0  0
    5.2380   -1.0210   30.5380 C   0  0  0  0  0  0  0  0  0  0  0  0
    6.5540   -0.3990   30.9520 C   0  0  0  0  0  0  0  0  0  0  0  0
    7.8670   -0.7280   30.2230 C   0  0  0  0  0  0  0  0  0  0  0  0
    7.7950   -1.6920   29.0790 C   0  0  0  0  0  0  0  0  0  0  0  0
    5.7240   -4.9310   23.3170 C   0  0  0  0  0  0  0  0  0  0  0  0
    6.5080   -5.3960   22.2810 C   0  0  0  0  0  0  0  0  0  0  0  0
  1  2  1  0
  2  3  2  0
  2  4  1  0
  4  5  1  0
  5  6  1  0
  6  7  1  0
  7  8  1  0
  8  9  2  0
  8 10  1  0
 10 11  1  0
 10 12  1  0
 12 13  1  6
 13 14  1  0
 14 15  1  0
 14 16  1  0
 12 17  1  0
 17 18  2  0
 18 19  1  0
 19 20  2  0
 20 21  1  0
 17 22  1  0
 21 22  2  0
  7 23  1  0
  4 24  1  0
 23 24  1  0
M  END
