piperidine-amides-1261-covalent
     RDKit          3D

 23 24  0  0  0  0  0  0  0  0999 V2000
    7.1630   -3.2270   19.1520 C   0  0  0  0  0  0  0  0  0  0  0  0
    6.3830   -3.9430   20.1930 C   0  0  0  0  0  0  0  0  0  0  0  0
    5.3080   -4.4900   19.8730 O   0  0  0  0  0  0  0  0  0  0  0  0
    6.9060   -4.0380   21.5020 N   0  0  0  0  0  0  0  0  0  0  0  0
    7.7980   -3.0680   22.1070 C   0  0  0  0  0  0  0  0  0  0  0  0
    7.0580   -2.3470   23.2480 C   0  0  0  0  0  0  0  0  0  0  0  0
    6.4380   -3.3760   24.1410 C   0  0  0  0  0  0  0  0  0  0  0  0
    5.6750   -2.7830   25.2900 C   0  0  0  0  0  0  0  0  0  0  0  0
    4.5620   -2.3160   25.0220 O   0  0  0  0  0  0  0  0  0  0  0  0
    6.1940   -2.7740   26.6060 N   0  0  0  0  0  0  0  0  0  0  0  0
    6.6350   -3.9510   27.2420 C   0  0  0  0  0  0  0  0  0  0  0  0
    7.0240   -4.9290   26.4010 C   0  0  0  0  0  0  0  0  0  0  0  0
    8.3700   -5.2650   26.3930 C   0  0  0  0  0  0  0  0  0  0  0  0
    8.8820   -6.2060   25.5710 C   0  0  0  0  0  0  0  0  0  0  0  0
    8.0180   -6.9380   24.6060 C   0  0  0  0  0  0  0  0  0  0  0  0
    6.5220   -6.6690   24.5270 C   0  0  0  0  0  0  0  0  0  0  0  0
    6.1780   -5.5860   25.5490 C   0  0  0  0  0  0  0  0  0  0  0  0
    4.8310   -5.2390   25.5920 O   0  0  0  0  0  0  0  0  0  0  0  0
    4.0620   -6.3370   25.9600 C   0  0  0  0  0  0  0  0  0  0  0  0
    2.7580   -6.1990   25.5490 F   0  0  0  0  0  0  0  0  0  0  0  0
    3.8970   -6.3320   27.3800 F   0  0  0  0  0  0  0  0  0  0  0  0
    5.5530   -4.3220   23.3850 C   0  0  0  0  0  0  0  0  0  0  0  0
    6.3740   -5.0580   22.3490 C   0  0  0  0  0  0  0  0  0  0  0  0
  1  2  1  0
  2  3  2  0
  2  4  1  0
  4  5  1  0
  5  6  1  0
  6  7  1  0
  7  8  1  0
  8  9  2  0
  8 10  1  0
 10 11  1  0
 11 12  1  0
 12 13  2  0
 13 14  1  0
 14 15  2  0
 15 16  1  0
 12 17  1  0
 16 17  2  0
 17 18  1  0
 18 19  1  0
 19 20  1  0
 19 21  1  0
  7 22  1  0
  4 23  1  0
 22 23  1  0
M  END
