piperidine-amides-12255-covalent
     RDKit          3D

 24 26  0  0  0  0  0  0  0  0999 V2000
    7.0980   -3.3140   19.2440 C   0  0  0  0  0  0  0  0  0  0  0  0
    6.3080   -4.0260   20.2440 C   0  0  0  0  0  0  0  0  0  0  0  0
    5.2780   -4.6010   19.9040 O   0  0  0  0  0  0  0  0  0  0  0  0
    6.7530   -4.1040   21.6040 N   0  0  0  0  0  0  0  0  0  0  0  0
    7.6960   -3.1240   22.0840 C   0  0  0  0  0  0  0  0  0  0  0  0
    7.4660   -2.9060   23.5380 C   0  0  0  0  0  0  0  0  0  0  0  0
    6.1340   -3.5510   23.8450 C   0  0  0  0  0  0  0  0  0  0  0  0
    5.7210   -3.1950   25.2280 C   0  0  0  0  0  0  0  0  0  0  0  0
    4.5270   -3.1670   25.5800 O   0  0  0  0  0  0  0  0  0  0  0  0
    6.7360   -2.8630   26.1480 N   0  0  0  0  0  0  0  0  0  0  0  0
    6.4600   -2.9400   27.5630 C   0  0  0  0  0  0  0  0  0  0  0  0
    6.5410   -4.3810   27.9960 C   0  0  0  0  0  0  0  0  0  0  0  0
    5.4340   -4.9270   28.5920 C   0  0  0  0  0  0  0  0  0  0  0  0
    5.4040   -6.3410   28.7380 N   0  0  0  0  0  0  0  0  0  0  0  0
    4.2510   -6.6470   29.3320 N   0  0  0  0  0  0  0  0  0  0  0  0
    3.7800   -7.9520   29.6860 C   0  0  0  0  0  0  0  0  0  0  0  0
    3.6220   -5.4880   29.5340 C   0  0  0  0  0  0  0  0  0  0  0  0
    2.3140   -5.2830   30.1580 C   0  0  0  0  0  0  0  0  0  0  0  0
    1.7360   -4.0380   30.3270 C   0  0  0  0  0  0  0  0  0  0  0  0
    2.4460   -2.9480   29.8780 C   0  0  0  0  0  0  0  0  0  0  0  0
    3.6880   -3.0550   29.2790 C   0  0  0  0  0  0  0  0  0  0  0  0
    4.3020   -4.3710   29.0970 C   0  0  0  0  0  0  0  0  0  0  0  0
    6.1130   -5.0520   23.6090 C   0  0  0  0  0  0  0  0  0  0  0  0
    6.6200   -5.3400   22.3340 C   0  0  0  0  0  0  0  0  0  0  0  0
  1  2  1  0
  2  3  2  0
  2  4  1  0
  4  5  1  0
  5  6  1  0
  6  7  1  0
  7  8  1  0
  8  9  2  0
  8 10  1  0
 10 11  1  0
 11 12  1  0
 12 13  1  0
 13 14  2  0
 14 15  1  0
 15 16  1  0
 15 17  1  0
 17 18  1  0
 18 19  2  0
 19 20  1  0
 20 21  2  0
 13 22  1  0
 17 22  2  0
 21 22  1  0
  7 23  1  0
  4 24  1  0
 23 24  1  0
M  END
