piperidine-amides-23590-covalent
     RDKit          3D

 24 26  0  0  0  0  0  0  0  0999 V2000
    7.0610   -3.4170   19.4780 C   0  0  0  0  0  0  0  0  0  0  0  0
    6.4000   -4.3000   20.4510 C   0  0  0  0  0  0  0  0  0  0  0  0
    5.4150   -4.9520   20.0140 O   0  0  0  0  0  0  0  0  0  0  0  0
    6.8900   -4.4370   21.7890 N   0  0  0  0  0  0  0  0  0  0  0  0
    6.4840   -5.5500   22.5930 C   0  0  0  0  0  0  0  0  0  0  0  0
    6.0450   -5.1720   23.9460 C   0  0  0  0  0  0  0  0  0  0  0  0
    6.0390   -3.7110   24.1430 C   0  0  0  0  0  0  0  0  0  0  0  0
    5.3770   -3.1080   25.3850 C   0  0  0  0  0  0  0  0  0  0  0  0
    4.7470   -2.0610   25.1920 O   0  0  0  0  0  0  0  0  0  0  0  0
    5.3500   -3.5740   26.7390 N   0  0  0  0  0  0  0  0  0  0  0  0
    4.8890   -2.8540   27.8440 C   0  0  0  0  0  0  0  0  0  0  0  0
    5.1720   -3.4260   29.1530 C   0  0  0  0  0  0  0  0  0  0  0  0
    5.1770   -4.7420   29.4060 N   0  0  0  0  0  0  0  0  0  0  0  0
    4.3020   -5.4880   30.2820 C   0  0  0  0  0  0  0  0  0  0  0  0
    5.0870   -6.4590   30.9200 C   0  0  0  0  0  0  0  0  0  0  0  0
    4.4690   -7.2780   31.8070 N   0  0  0  0  0  0  0  0  0  0  0  0
    3.0540   -7.2140   32.1220 C   0  0  0  0  0  0  0  0  0  0  0  0
    2.4160   -6.1380   31.3480 C   0  0  0  0  0  0  0  0  0  0  0  0
    2.9780   -5.3240   30.4890 N   0  0  0  0  0  0  0  0  0  0  0  0
    5.6010   -5.3930   28.3180 C   0  0  2  0  0  0  0  0  0  0  0  0
    6.6250   -6.4360   28.6340 C   0  0  0  0  0  0  0  0  0  0  0  0
    6.1900   -4.5490   27.2210 C   0  0  0  0  0  0  0  0  0  0  0  0
    7.4280   -3.1390   23.8330 C   0  0  0  0  0  0  0  0  0  0  0  0
    7.6120   -3.2690   22.3520 C   0  0  0  0  0  0  0  0  0  0  0  0
  1  2  1  0
  2  3  2  0
  2  4  1  0
  4  5  1  0
  5  6  1  0
  6  7  1  0
  7  8  1  0
  8  9  2  0
  8 10  1  0
 10 11  1  0
 11 12  1  0
 12 13  1  0
 13 14  1  0
 14 15  2  0
 15 16  1  0
 16 17  2  0
 17 18  1  0
 14 19  1  0
 18 19  2  0
 13 20  1  0
 20 21  1  1
 10 22  1  0
 20 22  1  0
  7 23  1  0
  4 24  1  0
 23 24  1  0
M  END
