piperidine-amides-33206-covalent
     RDKit          3D

 25 27  0  0  0  0  0  0  0  0999 V2000
    7.0790   -3.3250   19.2920 C   0  0  0  0  0  0  0  0  0  0  0  0
    6.4310   -4.1850   20.2940 C   0  0  0  0  0  0  0  0  0  0  0  0
    5.3650   -4.7520   19.9570 O   0  0  0  0  0  0  0  0  0  0  0  0
    7.0300   -4.4120   21.5560 N   0  0  0  0  0  0  0  0  0  0  0  0
    6.6350   -5.5490   22.2980 C   0  0  0  0  0  0  0  0  0  0  0  0
    6.1660   -5.2220   23.6380 C   0  0  0  0  0  0  0  0  0  0  0  0
    6.0300   -3.7720   23.9390 C   0  0  0  0  0  0  0  0  0  0  0  0
    5.6970   -3.5430   25.3770 C   0  0  0  0  0  0  0  0  0  0  0  0
    4.4960   -3.6570   25.6920 O   0  0  0  0  0  0  0  0  0  0  0  0
    6.6000   -3.1870   26.4120 N   0  0  0  0  0  0  0  0  0  0  0  0
    6.1180   -2.8760   27.6850 C   0  0  0  0  0  0  0  0  0  0  0  0
    6.2710   -3.8780   28.7070 C   0  0  0  0  0  0  0  0  0  0  0  0
    7.6080   -4.6070   28.4500 C   0  0  0  0  0  0  0  0  0  0  0  0
    7.7630   -5.1920   27.2140 C   0  0  0  0  0  0  0  0  0  0  0  0
    7.9370   -3.8180   26.5370 C   0  0  1  0  0  0  0  0  0  0  0  0
    8.3710   -4.4790   25.2640 C   0  0  0  0  0  0  0  0  0  0  0  0
    9.6350   -3.5900   25.1390 C   0  0  0  0  0  0  0  0  0  0  0  0
   10.9570   -4.1550   25.5690 C   0  0  0  0  0  0  0  0  0  0  0  0
   12.1830   -3.2760   25.4170 C   0  0  0  0  0  0  0  0  0  0  0  0
   12.0530   -1.8710   24.8500 C   0  0  0  0  0  0  0  0  0  0  0  0
   10.6980   -1.4110   24.4590 C   0  0  0  0  0  0  0  0  0  0  0  0
   10.4740    0.3400   23.7350 Br  0  0  0  0  0  0  0  0  0  0  0  0
    9.5910   -2.2700   24.6210 C   0  0  0  0  0  0  0  0  0  0  0  0
    7.0720   -2.8460   23.4170 C   0  0  0  0  0  0  0  0  0  0  0  0
    7.7710   -3.3540   22.1860 C   0  0  0  0  0  0  0  0  0  0  0  0
  1  2  1  0
  2  3  2  0
  2  4  1  0
  4  5  1  0
  5  6  1  0
  6  7  1  0
  7  8  1  0
  8  9  2  0
  8 10  1  0
 10 11  1  0
 11 12  1  0
 12 13  1  0
 13 14  1  0
 10 15  1  0
 14 15  1  0
 15 16  1  6
 16 17  1  0
 17 18  2  0
 18 19  1  0
 19 20  2  0
 20 21  1  0
 21 22  1  0
 17 23  1  0
 21 23  2  0
  7 24  1  0
  4 25  1  0
 24 25  1  0
M  END
