piperidine-amides-14529-covalent
     RDKit          3D

 23 25  0  0  0  0  0  0  0  0999 V2000
    7.1450   -3.3220   19.2430 C   0  0  0  0  0  0  0  0  0  0  0  0
    6.4060   -4.0860   20.2430 C   0  0  0  0  0  0  0  0  0  0  0  0
    5.3150   -4.5840   19.9090 O   0  0  0  0  0  0  0  0  0  0  0  0
    6.9680   -4.2960   21.5240 N   0  0  0  0  0  0  0  0  0  0  0  0
    7.6690   -3.2110   22.1380 C   0  0  0  0  0  0  0  0  0  0  0  0
    6.8050   -2.6590   23.2250 C   0  0  0  0  0  0  0  0  0  0  0  0
    6.5470   -3.7840   24.2010 C   0  0  0  0  0  0  0  0  0  0  0  0
    5.7520   -3.2440   25.3450 C   0  0  0  0  0  0  0  0  0  0  0  0
    4.8290   -2.4900   25.0470 O   0  0  0  0  0  0  0  0  0  0  0  0
    6.0930   -3.6250   26.6330 N   0  0  0  0  0  0  0  0  0  0  0  0
    5.2860   -4.5350   27.3760 C   0  0  0  0  0  0  0  0  0  0  0  0
    4.0220   -4.2610   27.9310 C   0  0  0  0  0  0  0  0  0  0  0  0
    3.8190   -3.0960   28.6610 C   0  0  0  0  0  0  0  0  0  0  0  0
    2.6210   -2.6930   29.2650 C   0  0  0  0  0  0  0  0  0  0  0  0
    1.4950   -3.6500   29.0700 C   0  0  0  0  0  0  0  0  0  0  0  0
    1.6720   -4.9460   28.2750 C   0  0  0  0  0  0  0  0  0  0  0  0
    0.5870   -5.7840   28.1360 F   0  0  0  0  0  0  0  0  0  0  0  0
    3.0170   -5.1860   27.7180 C   0  0  0  0  0  0  0  0  0  0  0  0
    5.5730   -6.0260   27.1080 C   0  0  0  0  0  0  0  0  0  0  0  0
    6.1290   -6.1790   28.5050 C   0  0  0  0  0  0  0  0  0  0  0  0
    5.8700   -4.8740   28.7570 C   0  0  0  0  0  0  0  0  0  0  0  0
    5.7210   -4.8390   23.5140 C   0  0  0  0  0  0  0  0  0  0  0  0
    6.4220   -5.3770   22.2950 C   0  0  0  0  0  0  0  0  0  0  0  0
  1  2  1  0
  2  3  2  0
  2  4  1  0
  4  5  1  0
  5  6  1  0
  6  7  1  0
  7  8  1  0
  8  9  2  0
  8 10  1  0
 11 10  1  0
 11 12  1  0
 12 13  2  0
 13 14  1  0
 14 15  2  0
 15 16  1  0
 16 17  1  0
 12 18  1  0
 16 18  2  0
 11 19  1  0
 19 20  1  0
 11 21  1  0
 20 21  1  0
  7 22  1  0
  4 23  1  0
 22 23  1  0
M  END
