piperidine-amides-762-covalent
     RDKit          3D

 25 26  0  0  0  0  0  0  0  0999 V2000
    6.8560   -3.2580   18.9810 C   0  0  0  0  0  0  0  0  0  0  0  0
    6.1020   -3.9280   20.0270 C   0  0  0  0  0  0  0  0  0  0  0  0
    4.9070   -4.3430   19.7190 O   0  0  0  0  0  0  0  0  0  0  0  0
    6.3770   -4.0110   21.5070 N   0  0  0  0  0  0  0  0  0  0  0  0
    5.5200   -4.9910   22.2740 C   0  0  0  0  0  0  0  0  0  0  0  0
    4.8610   -4.0350   23.3620 C   0  0  0  0  0  0  0  0  0  0  0  0
    6.0690   -3.2790   23.9590 C   0  0  0  0  0  0  0  0  0  0  0  0
    6.0740   -2.7000   25.4520 C   0  0  0  0  0  0  0  0  0  0  0  0
    5.4790   -1.5770   25.5450 O   0  0  0  0  0  0  0  0  0  0  0  0
    6.6180   -3.5790   26.0680 N   0  0  0  0  0  0  0  0  0  0  0  0
    6.8230   -4.7220   26.7690 C   0  0  2  0  0  0  0  0  0  0  0  0
    6.5630   -5.7400   26.1030 C   0  0  0  0  0  0  0  0  0  0  0  0
    5.5950   -4.9440   27.4810 C   0  0  0  0  0  0  0  0  0  0  0  0
    5.3690   -5.0110   28.9630 O   0  0  0  0  0  0  0  0  0  0  0  0
    4.4320   -6.0470   29.4040 C   0  0  0  0  0  0  0  0  0  0  0  0
    4.7010   -6.8910   30.7090 C   0  0  0  0  0  0  0  0  0  0  0  0
    3.5690   -7.9020   30.7350 C   0  0  0  0  0  0  0  0  0  0  0  0
    2.4110   -8.5220   30.0800 C   0  0  0  0  0  0  0  0  0  0  0  0
    2.3280   -7.4510   28.8520 C   0  0  0  0  0  0  0  0  0  0  0  0
    3.3730   -6.2920   28.4580 C   0  0  0  0  0  0  0  0  0  0  0  0
    7.9730   -5.3540   27.4340 C   0  0  0  0  0  0  0  0  0  0  0  0
    7.5150   -4.2490   27.9850 N   0  0  0  0  0  0  0  0  0  0  0  0
    9.1510   -6.0010   28.1140 O   0  0  0  0  0  0  0  0  0  0  0  0
    6.8650   -2.4240   23.0310 C   0  0  0  0  0  0  0  0  0  0  0  0
    7.4210   -3.2830   22.1720 C   0  0  0  0  0  0  0  0  0  0  0  0
  1  2  1  0
  2  3  2  0
  2  4  1  0
  4  5  1  0
  5  6  1  0
  6  7  1  0
  7  8  1  0
  8  9  2  0
  8 10  1  0
 10 11  1  0
 11 12  1  6
 11 13  1  0
 13 14  1  0
 14 15  1  0
 15 16  2  0
 16 17  1  0
 17 18  2  0
 18 19  1  0
 15 20  1  0
 19 20  2  0
 11 21  1  0
 21 22  1  0
 21 23  2  0
  7 24  1  0
  4 25  1  0
 24 25  1  0
M  END
