piperidine-amides-29698-covalent
     RDKit          3D

 27 30  0  0  0  0  0  0  0  0999 V2000
    7.0770   -3.3890   19.4240 C   0  0  0  0  0  0  0  0  0  0  0  0
    6.3890   -4.2610   20.3630 C   0  0  0  0  0  0  0  0  0  0  0  0
    5.3870   -4.8760   19.9970 O   0  0  0  0  0  0  0  0  0  0  0  0
    6.9170   -4.4430   21.6940 N   0  0  0  0  0  0  0  0  0  0  0  0
    7.6570   -3.3920   22.3360 C   0  0  0  0  0  0  0  0  0  0  0  0
    6.8490   -2.7880   23.4520 C   0  0  0  0  0  0  0  0  0  0  0  0
    6.2760   -3.8810   24.3630 C   0  0  0  0  0  0  0  0  0  0  0  0
    5.2860   -3.2680   25.3210 C   0  0  0  0  0  0  0  0  0  0  0  0
    4.4400   -2.4570   24.9150 O   0  0  0  0  0  0  0  0  0  0  0  0
    5.2590   -3.5800   26.7220 N   0  0  0  0  0  0  0  0  0  0  0  0
    4.8120   -2.5790   27.6230 C   0  0  0  0  0  0  0  0  0  0  0  0
    4.5540   -3.3030   28.9220 C   0  0  0  0  0  0  0  0  0  0  0  0
    5.2890   -4.3030   29.4300 N   0  0  0  0  0  0  0  0  0  0  0  0
    4.5390   -5.0980   30.2390 C   0  0  0  0  0  0  0  0  0  0  0  0
    4.7240   -6.3120   30.4930 O   0  0  0  0  0  0  0  0  0  0  0  0
    3.7040   -6.6220   31.3600 C   0  0  0  0  0  0  0  0  0  0  0  0
    3.4190   -7.8260   31.9700 C   0  0  0  0  0  0  0  0  0  0  0  0
    2.8300   -7.8540   33.1130 C   0  0  0  0  0  0  0  0  0  0  0  0
    4.1370   -8.2300   33.2490 C   0  0  0  0  0  0  0  0  0  0  0  0
    2.8460   -5.6620   31.6920 N   0  0  0  0  0  0  0  0  0  0  0  0
    3.4150   -4.5490   30.9080 C   0  0  0  0  0  0  0  0  0  0  0  0
    2.9720   -3.2280   30.8200 C   0  0  0  0  0  0  0  0  0  0  0  0
    2.7390   -2.5090   31.9660 N   0  0  0  0  0  0  0  0  0  0  0  0
    5.8870   -5.0000   28.4320 C   0  0  0  0  0  0  0  0  0  0  0  0
    6.1920   -4.4290   27.2220 C   0  0  0  0  0  0  0  0  0  0  0  0
    5.5820   -4.9810   23.5830 C   0  0  0  0  0  0  0  0  0  0  0  0
    6.4230   -5.5140   22.4680 C   0  0  0  0  0  0  0  0  0  0  0  0
  1  2  1  0
  2  3  2  0
  2  4  1  0
  4  5  1  0
  5  6  1  0
  6  7  1  0
  7  8  1  0
  8  9  2  0
  8 10  1  0
 10 11  1  0
 11 12  1  0
 12 13  1  0
 13 14  1  0
 14 15  1  0
 15 16  1  0
 16 17  1  0
 17 18  1  0
 17 19  1  0
 18 19  1  0
 16 20  2  0
 14 21  2  0
 20 21  1  0
 21 22  1  0
 22 23  3  0
 13 24  1  0
 10 25  1  0
 24 25  1  0
  7 26  1  0
  4 27  1  0
 26 27  1  0
M  END
