piperidine-amides-1008-covalent
     RDKit          3D

 24 26  0  0  0  0  0  0  0  0999 V2000
    7.1010   -3.3060   19.2930 C   0  0  0  0  0  0  0  0  0  0  0  0
    6.3880   -4.1470   20.2890 C   0  0  0  0  0  0  0  0  0  0  0  0
    5.3350   -4.7100   19.9460 O   0  0  0  0  0  0  0  0  0  0  0  0
    6.9400   -4.3330   21.5770 N   0  0  0  0  0  0  0  0  0  0  0  0
    6.5320   -5.4440   22.3840 C   0  0  0  0  0  0  0  0  0  0  0  0
    5.5990   -4.8490   23.4440 C   0  0  0  0  0  0  0  0  0  0  0  0
    6.3520   -3.8110   24.2310 C   0  0  0  0  0  0  0  0  0  0  0  0
    5.5740   -3.4190   25.4360 C   0  0  0  0  0  0  0  0  0  0  0  0
    4.4840   -2.8850   25.2100 O   0  0  0  0  0  0  0  0  0  0  0  0
    6.0490   -3.6300   26.7410 N   0  0  0  0  0  0  0  0  0  0  0  0
    6.1040   -4.8630   27.4640 C   0  0  0  0  0  0  0  0  0  0  0  0
    5.2790   -5.2910   28.4620 C   0  0  0  0  0  0  0  0  0  0  0  0
    3.8860   -5.0800   28.4020 C   0  0  0  0  0  0  0  0  0  0  0  0
    3.0170   -5.4820   29.3930 C   0  0  0  0  0  0  0  0  0  0  0  0
    3.5150   -6.1720   30.6050 C   0  0  0  0  0  0  0  0  0  0  0  0
    5.0070   -6.4480   30.7490 C   0  0  0  0  0  0  0  0  0  0  0  0
    5.7950   -5.9300   29.5470 C   0  0  0  0  0  0  0  0  0  0  0  0
    5.6440   -7.0660   31.8330 O   0  0  0  0  0  0  0  0  0  0  0  0
    5.1490   -7.5380   33.0400 C   0  0  0  0  0  0  0  0  0  0  0  0
    3.8850   -8.2550   32.6860 C   0  0  0  0  0  0  0  0  0  0  0  0
    3.0270   -7.0080   32.7710 C   0  0  0  0  0  0  0  0  0  0  0  0
    2.5700   -6.5160   31.5480 O   0  0  0  0  0  0  0  0  0  0  0  0
    6.6910   -2.7030   23.3190 C   0  0  0  0  0  0  0  0  0  0  0  0
    7.6390   -3.2720   22.2470 C   0  0  0  0  0  0  0  0  0  0  0  0
  1  2  1  0
  2  3  2  0
  2  4  1  0
  4  5  1  0
  5  6  1  0
  6  7  1  0
  7  8  1  0
  8  9  2  0
  8 10  1  0
 10 11  1  0
 11 12  1  0
 12 13  2  0
 13 14  1  0
 14 15  2  0
 15 16  1  0
 12 17  1  0
 16 17  2  0
 16 18  1  0
 18 19  1  0
 19 20  1  0
 20 21  1  0
 15 22  1  0
 21 22  1  0
  7 23  1  0
  4 24  1  0
 23 24  1  0
M  END
