piperidine-amides-624-covalent
     RDKit          3D

 26 27  0  0  0  0  0  0  0  0999 V2000
    7.2660   -3.2990   19.2810 C   0  0  0  0  0  0  0  0  0  0  0  0
    6.4720   -4.0190   20.2380 C   0  0  0  0  0  0  0  0  0  0  0  0
    5.3480   -4.4990   19.8810 O   0  0  0  0  0  0  0  0  0  0  0  0
    6.9520   -4.2430   21.5360 N   0  0  0  0  0  0  0  0  0  0  0  0
    7.9360   -3.2770   22.0780 C   0  0  0  0  0  0  0  0  0  0  0  0
    6.9910   -2.5140   23.0490 C   0  0  0  0  0  0  0  0  0  0  0  0
    6.5480   -3.5970   23.9860 C   0  0  0  0  0  0  0  0  0  0  0  0
    5.7730   -2.9360   25.1810 C   0  0  0  0  0  0  0  0  0  0  0  0
    5.5600   -1.7490   25.0280 O   0  0  0  0  0  0  0  0  0  0  0  0
    5.5780   -3.8660   25.9720 N   0  0  0  0  0  0  0  0  0  0  0  0
    5.3070   -4.8990   26.7650 C   0  0  1  0  0  0  0  0  0  0  0  0
    5.9440   -5.9100   27.3800 C   0  0  0  0  0  0  0  0  0  0  0  0
    5.9870   -5.5750   28.7170 C   0  0  0  0  0  0  0  0  0  0  0  0
    6.8610   -4.4360   28.9110 C   0  0  0  0  0  0  0  0  0  0  0  0
    6.4600   -6.8240   29.3460 C   0  0  0  0  0  0  0  0  0  0  0  0
    4.4800   -4.3790   27.9550 C   0  0  0  0  0  0  0  0  0  0  0  0
    4.9220   -3.0820   28.4170 C   0  0  0  0  0  0  0  0  0  0  0  0
    3.9380   -2.8300   29.6000 C   0  0  0  0  0  0  0  0  0  0  0  0
    4.1480   -1.3220   30.4640 Cl  0  0  0  0  0  0  0  0  0  0  0  0
    2.8160   -3.7970   30.0550 C   0  0  0  0  0  0  0  0  0  0  0  0
    2.6380   -4.9480   29.4170 C   0  0  0  0  0  0  0  0  0  0  0  0
    3.4600   -5.2190   28.3910 C   0  0  0  0  0  0  0  0  0  0  0  0
    3.2340   -6.3130   27.8460 O   0  0  0  0  0  0  0  0  0  0  0  0
    2.7260   -7.4100   28.5750 C   0  0  0  0  0  0  0  0  0  0  0  0
    5.8300   -4.7830   23.4170 C   0  0  0  0  0  0  0  0  0  0  0  0
    6.5200   -5.3400   22.3450 C   0  0  0  0  0  0  0  0  0  0  0  0
  1  2  1  0
  2  3  2  0
  2  4  1  0
  4  5  1  0
  5  6  1  0
  6  7  1  0
  7  8  1  0
  8  9  2  0
  8 10  1  0
 10 11  1  0
 11 12  1  1
 12 13  1  0
 13 14  1  0
 13 15  1  0
 11 16  1  0
 16 17  2  0
 17 18  1  0
 18 19  1  0
 18 20  2  0
 20 21  1  0
 16 22  1  0
 21 22  2  0
 22 23  1  0
 23 24  1  0
  7 25  1  0
  4 26  1  0
 25 26  1  0
M  END
