piperidine-amides-32891-covalent
     RDKit          3D

 29 31  0  0  0  0  0  0  0  0999 V2000
    7.1540   -3.2760   19.2250 C   0  0  0  0  0  0  0  0  0  0  0  0
    6.3610   -4.0530   20.2110 C   0  0  0  0  0  0  0  0  0  0  0  0
    5.2640   -4.5240   19.8750 O   0  0  0  0  0  0  0  0  0  0  0  0
    6.9140   -4.2930   21.4750 N   0  0  0  0  0  0  0  0  0  0  0  0
    7.7700   -3.3420   22.1430 C   0  0  0  0  0  0  0  0  0  0  0  0
    6.9270   -2.7170   23.2410 C   0  0  0  0  0  0  0  0  0  0  0  0
    6.5050   -3.8220   24.1480 C   0  0  0  0  0  0  0  0  0  0  0  0
    5.6320   -3.3280   25.2180 C   0  0  0  0  0  0  0  0  0  0  0  0
    4.4570   -3.7150   25.2260 O   0  0  0  0  0  0  0  0  0  0  0  0
    6.1480   -2.4410   26.1480 N   0  0  0  0  0  0  0  0  0  0  0  0
    7.3110   -1.6620   25.9280 C   0  0  0  0  0  0  0  0  0  0  0  0
    5.3620   -2.0590   27.2530 C   0  0  0  0  0  0  0  0  0  0  0  0
    6.0880   -1.5540   28.3040 C   0  0  0  0  0  0  0  0  0  0  0  0
    5.7230   -0.4450   29.1020 N   0  0  0  0  0  0  0  0  0  0  0  0
    6.6320   -0.2110   30.0200 N   0  0  0  0  0  0  0  0  0  0  0  0
    7.5760   -1.1380   29.8370 N   0  0  0  0  0  0  0  0  0  0  0  0
    7.2260   -1.9780   28.7570 N   0  0  0  0  0  0  0  0  0  0  0  0
    7.9090   -3.1370   28.1550 C   0  0  0  0  0  0  0  0  0  0  0  0
    7.4140   -4.4370   28.6080 C   0  0  0  0  0  0  0  0  0  0  0  0
    7.9820   -5.7390   28.1040 C   0  0  0  0  0  0  0  0  0  0  0  0
    7.4410   -6.9000   28.6040 O   0  0  0  0  0  0  0  0  0  0  0  0
    6.2100   -6.9250   29.2960 C   0  0  0  0  0  0  0  0  0  0  0  0
    9.0230   -5.7530   27.1660 C   0  0  0  0  0  0  0  0  0  0  0  0
    9.5880   -4.4910   26.6430 C   0  0  0  0  0  0  0  0  0  0  0  0
   10.6330   -4.4910   25.7050 O   0  0  0  0  0  0  0  0  0  0  0  0
   11.1320   -3.2690   25.1510 C   0  0  0  0  0  0  0  0  0  0  0  0
    9.0160   -3.1840   27.1430 C   0  0  0  0  0  0  0  0  0  0  0  0
    5.7650   -4.9540   23.4930 C   0  0  0  0  0  0  0  0  0  0  0  0
    6.4830   -5.4320   22.2550 C   0  0  0  0  0  0  0  0  0  0  0  0
  1  2  1  0
  2  3  2  0
  2  4  1  0
  4  5  1  0
  5  6  1  0
  6  7  1  0
  7  8  1  0
  8  9  2  0
  8 10  1  0
 10 11  1  0
 10 12  1  0
 12 13  1  0
 13 14  2  0
 14 15  1  0
 15 16  2  0
 13 17  1  0
 16 17  1  0
 17 18  1  0
 18 19  2  0
 19 20  1  0
 20 21  1  0
 21 22  1  0
 20 23  2  0
 23 24  1  0
 24 25  1  0
 25 26  1  0
 18 27  1  0
 24 27  2  0
  7 28  1  0
  4 29  1  0
 28 29  1  0
M  END
