piperidine-amides-14999-covalent
     RDKit          3D

 20 21  0  0  0  0  0  0  0  0999 V2000
    7.1010   -3.2940   19.2960 C   0  0  0  0  0  0  0  0  0  0  0  0
    6.3960   -4.1050   20.2850 C   0  0  0  0  0  0  0  0  0  0  0  0
    5.3400   -4.6620   19.9340 O   0  0  0  0  0  0  0  0  0  0  0  0
    6.9470   -4.2780   21.5820 N   0  0  0  0  0  0  0  0  0  0  0  0
    7.6310   -3.1570   22.1940 C   0  0  0  0  0  0  0  0  0  0  0  0
    7.4110   -3.1050   23.6900 C   0  0  0  0  0  0  0  0  0  0  0  0
    6.0360   -3.6680   23.9750 C   0  0  0  0  0  0  0  0  0  0  0  0
    5.5180   -3.3180   25.3370 C   0  0  0  0  0  0  0  0  0  0  0  0
    4.3090   -3.4400   25.4890 O   0  0  0  0  0  0  0  0  0  0  0  0
    6.3980   -2.8900   26.3200 N   0  0  0  0  0  0  0  0  0  0  0  0
    6.3720   -1.5530   26.8090 C   0  0  1  0  0  0  0  0  0  0  0  0
    5.1450   -0.9790   27.1220 C   0  0  0  0  0  0  0  0  0  0  0  0
    5.5920   -0.6880   28.3220 C   0  0  1  0  0  0  0  0  0  0  0  0
    5.0920   -1.1690   29.5180 C   0  0  0  0  0  0  0  0  0  0  0  0
    5.7540   -0.8750   30.7260 N   0  0  0  0  0  0  0  0  0  0  0  0
    7.1430   -0.4160   30.6950 C   0  0  0  0  0  0  0  0  0  0  0  0
    4.8560   -0.3150   31.5360 C   0  0  0  0  0  0  0  0  0  0  0  0
    6.9190   -1.4100   28.1790 C   0  0  0  0  0  0  0  0  0  0  0  0
    6.0400   -5.1200   23.6980 C   0  0  0  0  0  0  0  0  0  0  0  0
    6.5900   -5.4650   22.3110 C   0  0  0  0  0  0  0  0  0  0  0  0
  1  2  1  0
  2  3  2  0
  2  4  1  0
  4  5  1  0
  5  6  1  0
  6  7  1  0
  7  8  1  0
  8  9  2  0
  8 10  1  0
 11 10  1  1
 11 12  1  0
 12 13  1  0
 13 14  1  1
 14 15  1  0
 15 16  1  0
 15 17  1  0
 11 18  1  0
 13 18  1  0
  7 19  1  0
  4 20  1  0
 19 20  1  0
M  END
