piperidine-amides-4792-covalent
     RDKit          3D

 23 24  0  0  0  0  0  0  0  0999 V2000
    7.0320   -3.3120   19.2670 C   0  0  0  0  0  0  0  0  0  0  0  0
    6.3380   -4.0980   20.3160 C   0  0  0  0  0  0  0  0  0  0  0  0
    5.3200   -4.7140   19.9410 O   0  0  0  0  0  0  0  0  0  0  0  0
    6.8190   -4.1800   21.6410 N   0  0  0  0  0  0  0  0  0  0  0  0
    6.5920   -5.3510   22.4210 C   0  0  0  0  0  0  0  0  0  0  0  0
    6.1120   -5.0250   23.7660 C   0  0  0  0  0  0  0  0  0  0  0  0
    5.8720   -3.5770   23.9520 C   0  0  0  0  0  0  0  0  0  0  0  0
    5.2890   -3.2720   25.3080 C   0  0  0  0  0  0  0  0  0  0  0  0
    4.0480   -3.3170   25.3810 O   0  0  0  0  0  0  0  0  0  0  0  0
    6.0150   -2.9320   26.4830 N   0  0  0  0  0  0  0  0  0  0  0  0
    6.4400   -3.9230   27.5130 C   0  0  2  0  0  0  0  0  0  0  0  0
    7.6290   -4.5120   26.9650 C   0  0  0  0  0  0  0  0  0  0  0  0
    8.2780   -5.6550   27.5120 C   0  0  0  0  0  0  0  0  0  0  0  0
    9.3530   -6.0550   26.8690 C   0  0  0  0  0  0  0  0  0  0  0  0
    9.8150   -5.4460   25.7840 C   0  0  0  0  0  0  0  0  0  0  0  0
    9.2320   -4.3580   25.2160 C   0  0  0  0  0  0  0  0  0  0  0  0
    8.1240   -3.8000   25.7340 C   0  0  0  0  0  0  0  0  0  0  0  0
    5.5680   -4.8870   28.0510 C   0  0  0  0  0  0  0  0  0  0  0  0
    5.0750   -5.8150   27.1240 C   0  0  0  0  0  0  0  0  0  0  0  0
    6.2840   -5.6610   28.9420 C   0  0  0  0  0  0  0  0  0  0  0  0
    4.6780   -4.2770   28.8750 O   0  0  0  0  0  0  0  0  0  0  0  0
    7.0260   -2.6980   23.5740 C   0  0  0  0  0  0  0  0  0  0  0  0
    7.6120   -3.1210   22.2400 C   0  0  0  0  0  0  0  0  0  0  0  0
  1  2  1  0
  2  3  2  0
  2  4  1  0
  4  5  1  0
  5  6  1  0
  6  7  1  0
  7  8  1  0
  8  9  2  0
  8 10  1  0
 11 10  1  6
 11 12  1  0
 12 13  2  0
 13 14  1  0
 14 15  2  0
 15 16  1  0
 12 17  1  0
 16 17  2  0
 11 18  1  0
 18 19  1  0
 18 20  1  0
 18 21  1  0
  7 22  1  0
  4 23  1  0
 22 23  1  0
M  END
