piperidine-amides-376-covalent
     RDKit          3D

 28 31  0  0  0  0  0  0  0  0999 V2000
    7.1470   -3.3070   19.4130 C   0  0  0  0  0  0  0  0  0  0  0  0
    6.3460   -4.0720   20.3460 C   0  0  0  0  0  0  0  0  0  0  0  0
    5.3000   -4.6460   19.9160 O   0  0  0  0  0  0  0  0  0  0  0  0
    6.6960   -4.2440   21.6980 N   0  0  0  0  0  0  0  0  0  0  0  0
    7.7410   -3.3400   22.2640 C   0  0  0  0  0  0  0  0  0  0  0  0
    7.1150   -2.7830   23.6080 C   0  0  0  0  0  0  0  0  0  0  0  0
    6.1760   -3.8340   24.1490 C   0  0  0  0  0  0  0  0  0  0  0  0
    5.7710   -3.5900   25.6660 C   0  0  0  0  0  0  0  0  0  0  0  0
    5.3490   -4.6110   26.1580 O   0  0  0  0  0  0  0  0  0  0  0  0
    5.9640   -2.3800   25.9780 N   0  0  0  0  0  0  0  0  0  0  0  0
    6.0380   -1.0790   26.3650 C   0  0  0  0  0  0  0  0  0  0  0  0
    5.6140    0.1470   25.9000 C   0  0  0  0  0  0  0  0  0  0  0  0
    6.3940    1.1710   26.5890 N   0  0  0  0  0  0  0  0  0  0  0  0
    7.1950    2.0300   25.9480 C   0  0  0  0  0  0  0  0  0  0  0  0
    6.2480    2.9850   25.3410 C   0  0  0  0  0  0  0  0  0  0  0  0
    5.8280    3.6590   26.4020 N   0  0  0  0  0  0  0  0  0  0  0  0
    5.3560    4.8630   26.3240 C   0  0  0  0  0  0  0  0  0  0  0  0
    6.0150    5.9470   26.9750 C   0  0  0  0  0  0  0  0  0  0  0  0
    5.7950    7.3850   27.1080 C   0  0  0  0  0  0  0  0  0  0  0  0
    4.4870    7.5100   26.2600 C   0  0  0  0  0  0  0  0  0  0  0  0
    3.7730    6.3420   25.5550 C   0  0  0  0  0  0  0  0  0  0  0  0
    4.2070    5.1100   25.6040 C   0  0  0  0  0  0  0  0  0  0  0  0
    5.1420    2.9710   27.3310 C   0  0  0  0  0  0  0  0  0  0  0  0
    5.8070    1.8450   27.7060 C   0  0  0  0  0  0  0  0  0  0  0  0
    5.7360   -1.0320   27.9000 C   0  0  0  0  0  0  0  0  0  0  0  0
    6.9420   -0.9080   27.6060 C   0  0  0  0  0  0  0  0  0  0  0  0
    6.4290   -5.2600   23.8120 C   0  0  0  0  0  0  0  0  0  0  0  0
    6.5550   -5.5050   22.3550 C   0  0  0  0  0  0  0  0  0  0  0  0
  1  2  1  0
  2  3  2  0
  2  4  1  0
  4  5  1  0
  5  6  1  0
  6  7  1  0
  7  8  1  0
  8  9  2  0
  8 10  1  0
 11 10  1  0
 11 12  1  0
 12 13  1  0
 13 14  1  0
 14 15  1  0
 15 16  1  0
 16 17  1  0
 17 18  2  0
 18 19  1  0
 19 20  2  0
 20 21  1  0
 17 22  1  0
 21 22  2  0
 16 23  1  0
 13 24  1  0
 23 24  1  0
 11 25  1  0
 11 26  1  0
 25 26  1  0
  7 27  1  0
  4 28  1  0
 27 28  1  0
M  END
