piperidine-amides-30097-covalent
     RDKit          3D

 25 27  0  0  0  0  0  0  0  0999 V2000
    7.0550   -3.3690   19.3670 C   0  0  0  0  0  0  0  0  0  0  0  0
    6.3930   -4.2360   20.3320 C   0  0  0  0  0  0  0  0  0  0  0  0
    5.3770   -4.8390   19.9890 O   0  0  0  0  0  0  0  0  0  0  0  0
    6.9470   -4.4490   21.6480 N   0  0  0  0  0  0  0  0  0  0  0  0
    6.5340   -5.6020   22.3860 C   0  0  0  0  0  0  0  0  0  0  0  0
    5.7610   -5.1420   23.5910 C   0  0  0  0  0  0  0  0  0  0  0  0
    6.5250   -4.0260   24.3030 C   0  0  0  0  0  0  0  0  0  0  0  0
    5.7130   -3.5440   25.4790 C   0  0  0  0  0  0  0  0  0  0  0  0
    4.6370   -2.9470   25.2900 O   0  0  0  0  0  0  0  0  0  0  0  0
    6.1150   -3.7410   26.8420 N   0  0  0  0  0  0  0  0  0  0  0  0
    5.8010   -2.7150   27.7890 C   0  0  0  0  0  0  0  0  0  0  0  0
    5.4450   -3.4770   29.0420 C   0  0  0  0  0  0  0  0  0  0  0  0
    4.6730   -4.5780   29.0170 N   0  0  0  0  0  0  0  0  0  0  0  0
    3.9630   -5.2710   30.4080 S   0  0  0  0  0  0  0  0  0  0  0  0
    3.5500   -4.1870   31.3460 O   0  0  0  0  0  0  0  0  0  0  0  0
    4.8450   -6.2530   31.0970 O   0  0  0  0  0  0  0  0  0  0  0  0
    2.5260   -6.1630   29.9060 N   0  0  0  0  0  0  0  0  0  0  0  0
    1.4470   -5.8060   30.7640 C   0  0  0  0  0  0  0  0  0  0  0  0
    1.6410   -7.1400   31.0600 C   0  0  0  0  0  0  0  0  0  0  0  0
    0.4680   -7.8010   30.7270 O   0  0  0  0  0  0  0  0  0  0  0  0
    2.7060   -7.4700   30.1900 C   0  0  0  0  0  0  0  0  0  0  0  0
    5.1620   -5.5550   28.0970 C   0  0  0  0  0  0  0  0  0  0  0  0
    6.1930   -5.0560   27.3930 C   0  0  0  0  0  0  0  0  0  0  0  0
    6.7290   -2.8660   23.3280 C   0  0  0  0  0  0  0  0  0  0  0  0
    7.5770   -3.3240   22.3170 C   0  0  0  0  0  0  0  0  0  0  0  0
  1  2  1  0
  2  3  2  0
  2  4  1  0
  4  5  1  0
  5  6  1  0
  6  7  1  0
  7  8  1  0
  8  9  2  0
  8 10  1  0
 10 11  1  0
 11 12  1  0
 12 13  1  0
 14 13  1  0
 14 15  2  0
 14 16  2  0
 14 17  1  0
 17 18  1  0
 18 19  1  0
 19 20  1  0
 17 21  1  0
 19 21  1  0
 13 22  1  0
 10 23  1  0
 22 23  1  0
  7 24  1  0
  4 25  1  0
 24 25  1  0
M  END
