piperidine-amides-34873-covalent
     RDKit          3D

 32 36  0  0  0  0  0  0  0  0999 V2000
    7.1060   -3.3010   19.2610 C   0  0  0  0  0  0  0  0  0  0  0  0
    6.3540   -4.0630   20.2920 C   0  0  0  0  0  0  0  0  0  0  0  0
    5.3200   -4.6170   19.9170 O   0  0  0  0  0  0  0  0  0  0  0  0
    6.8500   -4.1630   21.5990 N   0  0  0  0  0  0  0  0  0  0  0  0
    6.6260   -5.3480   22.3950 C   0  0  0  0  0  0  0  0  0  0  0  0
    5.9480   -4.9430   23.6740 C   0  0  0  0  0  0  0  0  0  0  0  0
    6.0450   -3.4220   23.7950 C   0  0  0  0  0  0  0  0  0  0  0  0
    5.6320   -2.9910   25.1440 C   0  0  0  0  0  0  0  0  0  0  0  0
    4.9870   -3.7680   25.8590 O   0  0  0  0  0  0  0  0  0  0  0  0
    5.9550   -1.6940   25.6090 N   0  0  0  0  0  0  0  0  0  0  0  0
    6.7780   -1.5750   26.7290 C   0  0  0  0  0  0  0  0  0  0  0  0
    5.6890   -0.6830   27.2200 C   0  0  0  0  0  0  0  0  0  0  0  0
    5.0310   -1.0890   28.3460 C   0  0  0  0  0  0  0  0  0  0  0  0
    5.8660   -0.8390   29.3620 N   0  0  0  0  0  0  0  0  0  0  0  0
    5.3940   -0.4570   30.6710 C   0  0  0  0  0  0  0  0  0  0  0  0
    6.8370   -0.0660   28.6980 C   0  0  0  0  0  0  0  0  0  0  0  0
    6.3300    0.7430   27.4590 C   0  0  2  0  0  0  0  0  0  0  0  0
    4.8120    0.8550   27.4510 C   0  0  0  0  0  0  0  0  0  0  0  0
    4.2830    0.9910   26.0560 C   0  0  0  0  0  0  0  0  0  0  0  0
    2.8160    1.1220   26.1250 C   0  0  0  0  0  0  0  0  0  0  0  0
    2.0140    1.1310   27.2140 N   0  0  0  0  0  0  0  0  0  0  0  0
    2.5990    0.9990   28.5420 C   0  0  0  0  0  0  0  0  0  0  0  0
    1.9210    0.9950   29.7130 N   0  0  0  0  0  0  0  0  0  0  0  0
    1.4670   -0.3420   29.9870 C   0  0  0  0  0  0  0  0  0  0  0  0
    0.5010   -0.4040   31.1160 C   0  0  0  0  0  0  0  0  0  0  0  0
    0.4630    0.8450   31.7630 O   0  0  0  0  0  0  0  0  0  0  0  0
    1.7340    1.3160   31.9700 C   0  0  0  0  0  0  0  0  0  0  0  0
    2.2350    1.8820   30.8150 C   0  0  0  0  0  0  0  0  0  0  0  0
    3.9720    0.8660   28.6280 N   0  0  0  0  0  0  0  0  0  0  0  0
    4.8900   -0.7880   26.0100 C   0  0  0  0  0  0  0  0  0  0  0  0
    7.4580   -2.8950   23.5510 C   0  0  0  0  0  0  0  0  0  0  0  0
    7.7430   -3.1160   22.0750 C   0  0  0  0  0  0  0  0  0  0  0  0
  1  2  1  0
  2  3  2  0
  2  4  1  0
  4  5  1  0
  5  6  1  0
  6  7  1  0
  7  8  1  0
  8  9  2  0
  8 10  1  0
 10 11  1  0
 12 11  1  0
 12 13  1  0
 13 14  1  0
 14 15  1  0
 14 16  1  0
 12 17  1  0
 16 17  1  0
 17 18  1  1
 18 19  2  0
 19 20  1  0
 20 21  2  0
 21 22  1  0
 22 23  1  0
 23 24  1  0
 24 25  1  0
 25 26  1  0
 26 27  1  0
 23 28  1  0
 27 28  1  0
 18 29  1  0
 22 29  2  0
 10 30  1  0
 12 30  1  0
  7 31  1  0
  4 32  1  0
 31 32  1  0
M  END
