piperidine-amides-10540-covalent
     RDKit          3D

 23 25  0  0  0  0  0  0  0  0999 V2000
    7.0630   -3.3720   19.3660 C   0  0  0  0  0  0  0  0  0  0  0  0
    6.3620   -4.1740   20.3700 C   0  0  0  0  0  0  0  0  0  0  0  0
    5.3550   -4.8150   19.9700 O   0  0  0  0  0  0  0  0  0  0  0  0
    6.8430   -4.2380   21.6840 N   0  0  0  0  0  0  0  0  0  0  0  0
    7.7620   -3.2300   22.1680 C   0  0  0  0  0  0  0  0  0  0  0  0
    7.4210   -2.9660   23.5940 C   0  0  0  0  0  0  0  0  0  0  0  0
    6.0720   -3.5410   23.8910 C   0  0  0  0  0  0  0  0  0  0  0  0
    5.6930   -3.2480   25.2890 C   0  0  0  0  0  0  0  0  0  0  0  0
    4.5360   -3.5380   25.6580 O   0  0  0  0  0  0  0  0  0  0  0  0
    6.5720   -2.6450   26.2020 N   0  0  0  0  0  0  0  0  0  0  0  0
    6.0870   -1.8490   27.3010 C   0  0  2  0  0  0  0  0  0  0  0  0
    5.6290   -0.4840   26.8670 C   0  0  0  0  0  0  0  0  0  0  0  0
    6.1360    0.6260   27.4770 C   0  0  0  0  0  0  0  0  0  0  0  0
    5.8840    0.9990   28.7780 C   0  0  0  0  0  0  0  0  0  0  0  0
    5.3670    2.2580   29.0440 C   0  0  0  0  0  0  0  0  0  0  0  0
    5.0990    2.6870   30.3260 C   0  0  0  0  0  0  0  0  0  0  0  0
    5.3390    1.8710   31.4060 C   0  0  0  0  0  0  0  0  0  0  0  0
    5.9020    0.4810   31.2260 C   0  0  0  0  0  0  0  0  0  0  0  0
    6.1770    0.0610   29.7780 C   0  0  0  0  0  0  0  0  0  0  0  0
    6.6390   -1.0750   29.5300 O   0  0  0  0  0  0  0  0  0  0  0  0
    7.1000   -1.6940   28.3850 C   0  0  0  0  0  0  0  0  0  0  0  0
    6.0340   -5.0340   23.6720 C   0  0  0  0  0  0  0  0  0  0  0  0
    6.6840   -5.4380   22.5120 C   0  0  0  0  0  0  0  0  0  0  0  0
  1  2  1  0
  2  3  2  0
  2  4  1  0
  4  5  1  0
  5  6  1  0
  6  7  1  0
  7  8  1  0
  8  9  2  0
  8 10  1  0
 11 10  1  6
 11 12  1  0
 12 13  1  0
 13 14  1  0
 14 15  1  0
 15 16  2  0
 16 17  1  0
 17 18  2  0
 14 19  2  0
 18 19  1  0
 19 20  1  0
 11 21  1  0
 20 21  1  0
  7 22  1  0
  4 23  1  0
 22 23  1  0
M  END
