piperidine-amides-27493-covalent
     RDKit          3D

 25 26  0  0  0  0  0  0  0  0999 V2000
    7.0740   -3.3110   19.2750 C   0  0  0  0  0  0  0  0  0  0  0  0
    6.4020   -4.1100   20.3050 C   0  0  0  0  0  0  0  0  0  0  0  0
    5.3500   -4.7060   19.9470 O   0  0  0  0  0  0  0  0  0  0  0  0
    6.9460   -4.2300   21.5900 N   0  0  0  0  0  0  0  0  0  0  0  0
    6.6040   -5.3030   22.4850 C   0  0  0  0  0  0  0  0  0  0  0  0
    5.9440   -4.7120   23.7100 C   0  0  0  0  0  0  0  0  0  0  0  0
    6.6390   -3.4740   24.2540 C   0  0  0  0  0  0  0  0  0  0  0  0
    5.8270   -2.8770   25.3450 C   0  0  0  0  0  0  0  0  0  0  0  0
    4.9820   -3.6150   25.8980 O   0  0  0  0  0  0  0  0  0  0  0  0
    5.9160   -1.5250   25.7900 N   0  0  0  0  0  0  0  0  0  0  0  0
    7.1050   -0.7710   25.8590 C   0  0  0  0  0  0  0  0  0  0  0  0
    6.5490   -0.2610   27.1590 C   0  0  0  0  0  0  0  0  0  0  0  0
    6.1130    0.9160   27.1650 O   0  0  0  0  0  0  0  0  0  0  0  0
    7.2360   -0.3090   28.3610 C   0  0  0  0  0  0  0  0  0  0  0  0
    8.1400    0.6860   28.5930 N   0  0  0  0  0  0  0  0  0  0  0  0
    8.3100    1.2390   29.8210 C   0  0  0  0  0  0  0  0  0  0  0  0
    7.5880    2.3430   30.2420 O   0  0  0  0  0  0  0  0  0  0  0  0
    9.2160    0.7520   30.7460 O   0  0  0  0  0  0  0  0  0  0  0  0
   10.1830    1.5420   31.4250 C   0  0  0  0  0  0  0  0  0  0  0  0
   10.6760    0.6860   32.3940 C   0  0  0  0  0  0  0  0  0  0  0  0
    9.5740    2.6280   32.0010 C   0  0  0  0  0  0  0  0  0  0  0  0
   11.1030    1.9280   30.4950 C   0  0  0  0  0  0  0  0  0  0  0  0
    5.3550   -1.0670   27.0510 C   0  0  0  0  0  0  0  0  0  0  0  0
    6.9150   -2.4480   23.1510 C   0  0  0  0  0  0  0  0  0  0  0  0
    7.7780   -3.1700   22.1440 C   0  0  0  0  0  0  0  0  0  0  0  0
  1  2  1  0
  2  3  2  0
  2  4  1  0
  4  5  1  0
  5  6  1  0
  6  7  1  0
  7  8  1  0
  8  9  2  0
  8 10  1  0
 10 11  1  0
 11 12  1  0
 12 13  1  0
 12 14  1  0
 14 15  1  0
 15 16  1  0
 16 17  2  0
 16 18  1  0
 19 18  1  0
 19 20  1  0
 19 21  1  0
 19 22  1  0
 10 23  1  0
 12 23  1  0
  7 24  1  0
  4 25  1  0
 24 25  1  0
M  END
