piperidine-amides-30928-covalent
     RDKit          3D

 27 28  0  0  0  0  0  0  0  0999 V2000
    7.1780   -3.9900   19.6040 C   0  0  0  0  0  0  0  0  0  0  0  0
    5.9620   -3.9320   20.2590 C   0  0  0  0  0  0  0  0  0  0  0  0
    4.9480   -4.0200   19.5770 O   0  0  0  0  0  0  0  0  0  0  0  0
    6.0190   -3.8970   21.6120 N   0  0  0  0  0  0  0  0  0  0  0  0
    7.0940   -3.1050   22.1420 C   0  0  0  0  0  0  0  0  0  0  0  0
    6.5190   -2.6090   23.4110 C   0  0  0  0  0  0  0  0  0  0  0  0
    6.1340   -3.7680   24.2700 C   0  0  0  0  0  0  0  0  0  0  0  0
    5.3170   -3.3170   25.4010 C   0  0  0  0  0  0  0  0  0  0  0  0
    4.1950   -2.7670   25.2220 O   0  0  0  0  0  0  0  0  0  0  0  0
    5.7500   -3.4880   26.7130 N   0  0  0  0  0  0  0  0  0  0  0  0
    4.7360   -3.4720   27.7780 C   0  0  0  0  0  0  0  0  0  0  0  0
    5.0990   -4.5750   28.6790 C   0  0  0  0  0  0  0  0  0  0  0  0
    6.4700   -4.4540   29.1300 C   0  0  0  0  0  0  0  0  0  0  0  0
    7.4290   -4.2300   28.0000 C   0  0  2  0  0  0  0  0  0  0  0  0
    8.7000   -4.9730   28.2800 C   0  0  0  0  0  0  0  0  0  0  0  0
    7.7380   -2.7200   28.0450 C   0  0  0  0  0  0  0  0  0  0  0  0
    8.4180   -2.1500   26.9250 N   0  0  0  0  0  0  0  0  0  0  0  0
    8.3860   -2.7710   25.7090 C   0  0  0  0  0  0  0  0  0  0  0  0
    7.7000   -2.2740   24.7730 O   0  0  0  0  0  0  0  0  0  0  0  0
    9.1010   -3.8090   25.5470 O   0  0  0  0  0  0  0  0  0  0  0  0
    8.5880   -5.1090   25.7120 C   0  0  0  0  0  0  0  0  0  0  0  0
    7.8860   -5.8480   24.5850 C   0  0  0  0  0  0  0  0  0  0  0  0
    9.7480   -5.9560   26.0740 C   0  0  0  0  0  0  0  0  0  0  0  0
    7.7660   -5.2440   26.9390 C   0  0  0  0  0  0  0  0  0  0  0  0
    6.8520   -4.4010   26.7830 C   0  0  0  0  0  0  0  0  0  0  0  0
    5.4060   -4.8830   23.6210 C   0  0  0  0  0  0  0  0  0  0  0  0
    5.7830   -5.1020   22.3300 C   0  0  0  0  0  0  0  0  0  0  0  0
  1  2  1  0
  2  3  2  0
  2  4  1  0
  4  5  1  0
  5  6  1  0
  6  7  1  0
  7  8  1  0
  8  9  2  0
  8 10  1  0
 10 11  1  0
 11 12  1  0
 12 13  1  0
 13 14  1  0
 14 15  1  1
 14 16  1  0
 16 17  1  0
 17 18  1  0
 18 19  2  0
 18 20  1  0
 21 20  1  0
 21 22  1  0
 21 23  1  0
 21 24  1  0
 10 25  1  0
 14 25  1  0
  7 26  1  0
  4 27  1  0
 26 27  1  0
M  END
