piperidine-amides-6546-covalent
     RDKit          3D

 24 26  0  0  0  0  0  0  0  0999 V2000
    7.1010   -3.3320   19.3210 C   0  0  0  0  0  0  0  0  0  0  0  0
    6.4190   -4.1960   20.2940 C   0  0  0  0  0  0  0  0  0  0  0  0
    5.3750   -4.8090   19.9720 O   0  0  0  0  0  0  0  0  0  0  0  0
    6.9620   -4.3910   21.5690 N   0  0  0  0  0  0  0  0  0  0  0  0
    7.7350   -3.3340   22.1740 C   0  0  0  0  0  0  0  0  0  0  0  0
    6.8430   -2.7300   23.2470 C   0  0  0  0  0  0  0  0  0  0  0  0
    6.5290   -3.8420   24.2210 C   0  0  0  0  0  0  0  0  0  0  0  0
    5.7490   -3.2940   25.3490 C   0  0  0  0  0  0  0  0  0  0  0  0
    4.5360   -3.0490   25.1630 O   0  0  0  0  0  0  0  0  0  0  0  0
    6.3700   -3.0700   26.5970 N   0  0  0  0  0  0  0  0  0  0  0  0
    6.3700   -1.7710   27.2230 C   0  0  0  0  0  0  0  0  0  0  0  0
    7.0520   -1.6070   28.5630 C   0  0  0  0  0  0  0  0  0  0  0  0
    7.0810   -0.3970   29.2140 C   0  0  0  0  0  0  0  0  0  0  0  0
    6.4730    0.6980   28.6250 C   0  0  0  0  0  0  0  0  0  0  0  0
    5.8390    0.5800   27.3910 C   0  0  0  0  0  0  0  0  0  0  0  0
    5.7390   -0.5370   26.6600 C   0  0  0  0  0  0  0  0  0  0  0  0
    4.9720   -0.2270   25.4040 C   0  0  2  0  0  0  0  0  0  0  0  0
    6.4100   -0.6480   25.2520 C   0  0  0  0  0  0  0  0  0  0  0  0
    4.5750    1.1990   25.4780 C   0  0  0  0  0  0  0  0  0  0  0  0
    5.2180    1.6370   26.7550 C   0  0  0  0  0  0  0  0  0  0  0  0
    4.5480    2.6650   27.4390 C   0  0  0  0  0  0  0  0  0  0  0  0
    5.9340    2.9310   26.9070 C   0  0  0  0  0  0  0  0  0  0  0  0
    5.7270   -4.9550   23.5610 C   0  0  0  0  0  0  0  0  0  0  0  0
    6.4960   -5.4830   22.3730 C   0  0  0  0  0  0  0  0  0  0  0  0
  1  2  1  0
  2  3  2  0
  2  4  1  0
  4  5  1  0
  5  6  1  0
  6  7  1  0
  7  8  1  0
  8  9  2  0
  8 10  1  0
 10 11  1  0
 11 12  2  0
 12 13  1  0
 13 14  2  0
 14 15  1  0
 11 16  1  0
 15 16  2  0
 16 17  1  0
 17 18  1  6
 17 19  1  0
 15 20  1  0
 19 20  1  0
 20 21  1  0
 20 22  1  0
  7 23  1  0
  4 24  1  0
 23 24  1  0
M  END
