piperidine-amides-24100-covalent
     RDKit          3D

 24 26  0  0  0  0  0  0  0  0999 V2000
    7.1580   -3.3280   19.2700 C   0  0  0  0  0  0  0  0  0  0  0  0
    6.3990   -4.1040   20.2520 C   0  0  0  0  0  0  0  0  0  0  0  0
    5.2870   -4.5570   19.8930 O   0  0  0  0  0  0  0  0  0  0  0  0
    6.9590   -4.3850   21.5160 N   0  0  0  0  0  0  0  0  0  0  0  0
    6.4560   -5.4950   22.2350 C   0  0  0  0  0  0  0  0  0  0  0  0
    5.9800   -5.1340   23.5590 C   0  0  0  0  0  0  0  0  0  0  0  0
    6.6900   -3.9970   24.1750 C   0  0  0  0  0  0  0  0  0  0  0  0
    5.9990   -3.5590   25.4160 C   0  0  0  0  0  0  0  0  0  0  0  0
    4.9690   -2.8550   25.3640 O   0  0  0  0  0  0  0  0  0  0  0  0
    6.5220   -3.9660   26.6360 N   0  0  0  0  0  0  0  0  0  0  0  0
    7.0370   -5.1660   26.9520 C   0  0  0  0  0  0  0  0  0  0  0  0
    6.9180   -5.1800   28.3730 C   0  0  0  0  0  0  0  0  0  0  0  0
    5.4340   -4.6980   28.6380 C   0  0  2  0  0  0  0  0  0  0  0  0
    4.6610   -5.6810   28.0610 O   0  0  0  0  0  0  0  0  0  0  0  0
    4.1990   -6.4900   29.0960 C   0  0  0  0  0  0  0  0  0  0  0  0
    2.8080   -7.1270   28.8660 C   0  0  0  0  0  0  0  0  0  0  0  0
    2.3020   -8.0070   30.0130 C   0  0  0  0  0  0  0  0  0  0  0  0
    3.2920   -8.0920   31.2020 C   0  0  0  0  0  0  0  0  0  0  0  0
    4.6230   -7.4440   31.3450 C   0  0  0  0  0  0  0  0  0  0  0  0
    5.4220   -7.5930   32.4610 F   0  0  0  0  0  0  0  0  0  0  0  0
    5.0070   -6.6240   30.1790 C   0  0  0  0  0  0  0  0  0  0  0  0
    5.9440   -3.4680   27.8430 C   0  0  0  0  0  0  0  0  0  0  0  0
    6.8950   -2.8790   23.2090 C   0  0  0  0  0  0  0  0  0  0  0  0
    7.7310   -3.3850   22.2260 C   0  0  0  0  0  0  0  0  0  0  0  0
  1  2  1  0
  2  3  2  0
  2  4  1  0
  4  5  1  0
  5  6  1  0
  6  7  1  0
  7  8  1  0
  8  9  2  0
  8 10  1  0
 10 11  1  0
 11 12  1  0
 12 13  1  0
 13 14  1  6
 14 15  1  0
 15 16  2  0
 16 17  1  0
 17 18  2  0
 18 19  1  0
 19 20  1  0
 15 21  1  0
 19 21  2  0
 10 22  1  0
 13 22  1  0
  7 23  1  0
  4 24  1  0
 23 24  1  0
M  END
