piperidine-amides-5097-covalent
     RDKit          3D

 22 23  0  0  0  0  0  0  0  0999 V2000
    7.1350   -3.2490   19.1800 C   0  0  0  0  0  0  0  0  0  0  0  0
    6.3650   -3.9960   20.2010 C   0  0  0  0  0  0  0  0  0  0  0  0
    5.2720   -4.4730   19.8480 O   0  0  0  0  0  0  0  0  0  0  0  0
    6.8780   -4.2010   21.4840 N   0  0  0  0  0  0  0  0  0  0  0  0
    7.6240   -3.1690   22.1300 C   0  0  0  0  0  0  0  0  0  0  0  0
    7.1440   -2.7910   23.4600 C   0  0  0  0  0  0  0  0  0  0  0  0
    6.5340   -3.8890   24.2360 C   0  0  0  0  0  0  0  0  0  0  0  0
    5.7860   -3.3390   25.3940 C   0  0  0  0  0  0  0  0  0  0  0  0
    4.5580   -3.1640   25.2710 O   0  0  0  0  0  0  0  0  0  0  0  0
    6.4350   -3.0150   26.6010 N   0  0  0  0  0  0  0  0  0  0  0  0
    6.2110   -3.7530   27.8670 C   0  0  0  0  0  0  0  0  0  0  0  0
    5.5960   -5.1060   27.6790 C   0  0  0  0  0  0  0  0  0  0  0  0
    5.3920   -5.8970   28.8790 C   0  0  0  0  0  0  0  0  0  0  0  0
    4.1070   -6.1350   29.3200 C   0  0  0  0  0  0  0  0  0  0  0  0
    3.8290   -7.4940   29.3060 N   0  0  0  0  0  0  0  0  0  0  0  0
    2.5160   -7.9210   29.7390 C   0  0  0  0  0  0  0  0  0  0  0  0
    1.6130   -6.9790   30.1420 C   0  0  0  0  0  0  0  0  0  0  0  0
    1.9260   -5.6470   30.1410 C   0  0  0  0  0  0  0  0  0  0  0  0
    3.1550   -5.2100   29.7380 C   0  0  0  0  0  0  0  0  0  0  0  0
    3.4320   -3.8440   29.7530 C   0  0  0  0  0  0  0  0  0  0  0  0
    5.7150   -4.8530   23.4680 C   0  0  0  0  0  0  0  0  0  0  0  0
    6.5010   -5.3540   22.2870 C   0  0  0  0  0  0  0  0  0  0  0  0
  1  2  1  0
  2  3  2  0
  2  4  1  0
  4  5  1  0
  5  6  1  0
  6  7  1  0
  7  8  1  0
  8  9  2  0
  8 10  1  0
 10 11  1  0
 11 12  1  0
 12 13  1  0
 13 14  1  0
 14 15  2  0
 15 16  1  0
 16 17  2  0
 17 18  1  0
 14 19  1  0
 18 19  2  0
 19 20  1  0
  7 21  1  0
  4 22  1  0
 21 22  1  0
M  END
