piperidine-amides-28634-covalent
     RDKit          3D

 26 28  0  0  0  0  0  0  0  0999 V2000
    7.0210   -3.3640   19.3890 C   0  0  0  0  0  0  0  0  0  0  0  0
    6.4010   -4.2550   20.3690 C   0  0  0  0  0  0  0  0  0  0  0  0
    5.4030   -4.8970   19.9960 O   0  0  0  0  0  0  0  0  0  0  0  0
    6.9500   -4.4120   21.6760 N   0  0  0  0  0  0  0  0  0  0  0  0
    6.4830   -5.5020   22.4700 C   0  0  0  0  0  0  0  0  0  0  0  0
    5.5480   -4.9600   23.5160 C   0  0  0  0  0  0  0  0  0  0  0  0
    6.2980   -3.9340   24.3520 C   0  0  0  0  0  0  0  0  0  0  0  0
    5.3650   -3.2700   25.3550 C   0  0  0  0  0  0  0  0  0  0  0  0
    4.6340   -2.4170   24.8760 O   0  0  0  0  0  0  0  0  0  0  0  0
    5.3470   -3.6150   26.7260 N   0  0  0  0  0  0  0  0  0  0  0  0
    4.3280   -3.2590   27.5910 C   0  0  0  0  0  0  0  0  0  0  0  0
    4.8100   -3.3870   28.9030 C   0  0  0  0  0  0  0  0  0  0  0  0
    5.1800   -4.8050   28.9840 N   0  0  0  0  0  0  0  0  0  0  0  0
    4.4330   -5.8600   29.5600 C   0  0  0  0  0  0  0  0  0  0  0  0
    4.9890   -6.5840   30.6280 C   0  0  0  0  0  0  0  0  0  0  0  0
    4.1560   -7.6920   31.2240 C   0  0  0  0  0  0  0  0  0  0  0  0
    4.7740   -8.3490   32.2630 O   0  0  0  0  0  0  0  0  0  0  0  0
    5.0570   -7.4120   33.2560 C   0  0  0  0  0  0  0  0  0  0  0  0
    2.9020   -8.0520   30.8080 C   0  0  0  0  0  0  0  0  0  0  0  0
    2.3050   -7.3030   29.6810 C   0  0  0  0  0  0  0  0  0  0  0  0
    3.1600   -6.1770   29.0860 C   0  0  0  0  0  0  0  0  0  0  0  0
    2.6660   -5.4360   28.0380 F   0  0  0  0  0  0  0  0  0  0  0  0
    6.4830   -4.5960   28.3250 C   0  0  0  0  0  0  0  0  0  0  0  0
    6.4840   -3.4640   27.4840 C   0  0  0  0  0  0  0  0  0  0  0  0
    6.9350   -2.8470   23.5310 C   0  0  0  0  0  0  0  0  0  0  0  0
    7.6830   -3.3660   22.3320 C   0  0  0  0  0  0  0  0  0  0  0  0
  1  2  1  0
  2  3  2  0
  2  4  1  0
  4  5  1  0
  5  6  1  0
  6  7  1  0
  7  8  1  0
  8  9  2  0
  8 10  1  0
 10 11  1  0
 11 12  1  0
 12 13  1  0
 13 14  1  0
 14 15  2  0
 15 16  1  0
 16 17  1  0
 17 18  1  0
 16 19  2  0
 19 20  1  0
 14 21  1  0
 20 21  2  0
 21 22  1  0
 13 23  1  0
 10 24  1  0
 23 24  1  0
  7 25  1  0
  4 26  1  0
 25 26  1  0
M  END
