piperidine-amides-1553-covalent
     RDKit          3D

 21 22  0  0  0  0  0  0  0  0999 V2000
    7.0420   -3.3360   19.3550 C   0  0  0  0  0  0  0  0  0  0  0  0
    6.3420   -4.1970   20.3490 C   0  0  0  0  0  0  0  0  0  0  0  0
    5.3480   -4.8440   19.9770 O   0  0  0  0  0  0  0  0  0  0  0  0
    6.8430   -4.2930   21.6680 N   0  0  0  0  0  0  0  0  0  0  0  0
    6.7080   -5.5230   22.4220 C   0  0  0  0  0  0  0  0  0  0  0  0
    6.0960   -5.1730   23.7840 C   0  0  0  0  0  0  0  0  0  0  0  0
    6.1510   -3.6940   23.9270 C   0  0  0  0  0  0  0  0  0  0  0  0
    5.7090   -3.2210   25.2610 C   0  0  0  0  0  0  0  0  0  0  0  0
    4.5150   -3.4080   25.5290 O   0  0  0  0  0  0  0  0  0  0  0  0
    6.5920   -2.5940   26.1450 N   0  0  0  0  0  0  0  0  0  0  0  0
    6.2480   -1.6350   27.1380 C   0  0  1  0  0  0  0  0  0  0  0  0
    7.0760   -1.4610   28.2130 C   0  0  0  0  0  0  0  0  0  0  0  0
    6.7170   -0.5850   29.2320 C   0  0  0  0  0  0  0  0  0  0  0  0
    5.9970    0.5400   28.8950 C   0  0  1  0  0  0  0  0  0  0  0  0
    6.1430    1.6850   29.8350 C   0  0  0  0  0  0  0  0  0  0  0  0
    4.9500    2.6520   29.8470 C   0  0  0  0  0  0  0  0  0  0  0  0
    6.4020    1.2410   31.0940 C   0  0  0  0  0  0  0  0  0  0  0  0
    5.9820    0.8490   27.5680 C   0  0  0  0  0  0  0  0  0  0  0  0
    5.8880   -0.3080   26.6380 C   0  0  0  0  0  0  0  0  0  0  0  0
    7.4700   -3.0870   23.5760 C   0  0  0  0  0  0  0  0  0  0  0  0
    7.6590   -3.2440   22.2280 C   0  0  0  0  0  0  0  0  0  0  0  0
  1  2  1  0
  2  3  2  0
  2  4  1  0
  4  5  1  0
  5  6  1  0
  6  7  1  0
  7  8  1  0
  8  9  2  0
  8 10  1  0
 11 10  1  6
 11 12  1  0
 12 13  1  0
 13 14  1  0
 14 15  1  1
 15 16  1  0
 15 17  1  0
 14 18  1  0
 11 19  1  0
 18 19  1  0
  7 20  1  0
  4 21  1  0
 20 21  1  0
M  END
