piperidine-amides-3695-covalent
     RDKit          3D

 23 25  0  0  0  0  0  0  0  0999 V2000
    7.1070   -3.3180   19.2940 C   0  0  0  0  0  0  0  0  0  0  0  0
    6.4260   -4.1510   20.2960 C   0  0  0  0  0  0  0  0  0  0  0  0
    5.3540   -4.7030   19.9450 O   0  0  0  0  0  0  0  0  0  0  0  0
    6.9900   -4.3720   21.5770 N   0  0  0  0  0  0  0  0  0  0  0  0
    7.6390   -3.2720   22.2110 C   0  0  0  0  0  0  0  0  0  0  0  0
    7.1530   -2.9300   23.5440 C   0  0  0  0  0  0  0  0  0  0  0  0
    6.4370   -3.9930   24.2840 C   0  0  0  0  0  0  0  0  0  0  0  0
    5.6720   -3.4220   25.4380 C   0  0  0  0  0  0  0  0  0  0  0  0
    4.4390   -3.5920   25.4860 O   0  0  0  0  0  0  0  0  0  0  0  0
    6.2900   -2.6700   26.4640 N   0  0  0  0  0  0  0  0  0  0  0  0
    5.8110   -1.4490   27.0050 C   0  0  1  0  0  0  0  0  0  0  0  0
    6.4360   -0.9520   28.2400 C   0  0  0  0  0  0  0  0  0  0  0  0
    7.3930   -1.6360   29.0480 C   0  0  0  0  0  0  0  0  0  0  0  0
    7.7640   -0.8120   30.1510 C   0  0  0  0  0  0  0  0  0  0  0  0
    7.1700    0.6910   30.4720 C   0  0  0  0  0  0  0  0  0  0  0  0
    6.0880    1.3970   29.5630 C   0  0  0  0  0  0  0  0  0  0  0  0
    6.5090    0.1170   29.1530 C   0  0  0  0  0  0  0  0  0  0  0  0
    5.5390    0.5910   28.2630 O   0  0  0  0  0  0  0  0  0  0  0  0
    5.7600    0.9390   26.9180 C   0  0  0  0  0  0  0  0  0  0  0  0
    5.6620   -0.3540   26.2020 C   0  0  1  0  0  0  0  0  0  0  0  0
    6.5230   -0.4970   25.1640 O   0  0  0  0  0  0  0  0  0  0  0  0
    5.5120   -4.8130   23.3780 C   0  0  0  0  0  0  0  0  0  0  0  0
    6.3820   -5.4490   22.3610 C   0  0  0  0  0  0  0  0  0  0  0  0
  1  2  1  0
  2  3  2  0
  2  4  1  0
  4  5  1  0
  5  6  1  0
  6  7  1  0
  7  8  1  0
  8  9  2  0
  8 10  1  0
 11 10  1  6
 11 12  1  0
 12 13  2  0
 13 14  1  0
 14 15  2  0
 15 16  1  0
 12 17  1  0
 16 17  2  0
 17 18  1  0
 18 19  1  0
 11 20  1  0
 19 20  1  0
 20 21  1  6
  7 22  1  0
  4 23  1  0
 22 23  1  0
M  END
