piperidine-amides-3206-covalent
     RDKit          3D

 22 24  0  0  0  0  0  0  0  0999 V2000
    7.1100   -3.2900   19.2200 C   0  0  0  0  0  0  0  0  0  0  0  0
    6.3630   -4.0560   20.2070 C   0  0  0  0  0  0  0  0  0  0  0  0
    5.2900   -4.5690   19.8960 O   0  0  0  0  0  0  0  0  0  0  0  0
    6.9070   -4.2700   21.5200 N   0  0  0  0  0  0  0  0  0  0  0  0
    6.6240   -5.4860   22.2070 C   0  0  0  0  0  0  0  0  0  0  0  0
    5.8580   -5.1850   23.4600 C   0  0  0  0  0  0  0  0  0  0  0  0
    6.2550   -3.8360   24.0620 C   0  0  0  0  0  0  0  0  0  0  0  0
    5.0210   -3.3460   24.7270 C   0  0  0  0  0  0  0  0  0  0  0  0
    3.9010   -3.4240   24.1990 O   0  0  0  0  0  0  0  0  0  0  0  0
    5.0880   -2.7730   25.9950 N   0  0  0  0  0  0  0  0  0  0  0  0
    4.9050   -3.6150   27.1400 C   0  0  2  0  0  0  0  0  0  0  0  0
    6.2120   -3.3500   27.7280 C   0  0  0  0  0  0  0  0  0  0  0  0
    6.4430   -2.0300   28.0650 C   0  0  0  0  0  0  0  0  0  0  0  0
    7.6360   -1.6670   28.6010 C   0  0  0  0  0  0  0  0  0  0  0  0
    8.5780   -2.6430   28.7840 N   0  0  0  0  0  0  0  0  0  0  0  0
    8.3080   -3.9710   28.4390 C   0  0  0  0  0  0  0  0  0  0  0  0
    7.0810   -4.4350   27.8750 C   0  0  0  0  0  0  0  0  0  0  0  0
    4.4350   -4.9210   26.9750 C   0  0  0  0  0  0  0  0  0  0  0  0
    4.5610   -5.7770   27.8680 C   0  0  0  0  0  0  0  0  0  0  0  0
    5.3090   -6.2140   26.7170 C   0  0  0  0  0  0  0  0  0  0  0  0
    6.8120   -2.7830   23.2080 C   0  0  0  0  0  0  0  0  0  0  0  0
    7.6500   -3.2800   22.2340 C   0  0  0  0  0  0  0  0  0  0  0  0
  1  2  1  0
  2  3  2  0
  2  4  1  0
  4  5  1  0
  5  6  1  0
  6  7  1  0
  7  8  1  0
  8  9  2  0
  8 10  1  0
 11 10  1  6
 11 12  1  0
 12 13  2  0
 13 14  1  0
 14 15  2  0
 15 16  1  0
 12 17  1  0
 16 17  2  0
 11 18  1  0
 18 19  1  0
 18 20  1  0
 19 20  1  0
  7 21  1  0
  4 22  1  0
 21 22  1  0
M  END
