piperidine-amides-15159-covalent
     RDKit          3D

 20 20  0  0  0  0  0  0  0  0999 V2000
    7.0360   -3.2990   19.2930 C   0  0  0  0  0  0  0  0  0  0  0  0
    6.3470   -4.1120   20.2960 C   0  0  0  0  0  0  0  0  0  0  0  0
    5.3200   -4.7110   19.9420 O   0  0  0  0  0  0  0  0  0  0  0  0
    6.8640   -4.2510   21.6170 N   0  0  0  0  0  0  0  0  0  0  0  0
    6.5990   -5.4690   22.3440 C   0  0  0  0  0  0  0  0  0  0  0  0
    6.4580   -5.1830   23.8150 C   0  0  0  0  0  0  0  0  0  0  0  0
    5.9350   -3.7790   23.9420 C   0  0  0  0  0  0  0  0  0  0  0  0
    5.6870   -3.4050   25.3800 C   0  0  0  0  0  0  0  0  0  0  0  0
    4.5920   -2.8970   25.6020 O   0  0  0  0  0  0  0  0  0  0  0  0
    6.6620   -3.6360   26.3570 N   0  0  0  0  0  0  0  0  0  0  0  0
    6.8280   -4.8890   27.0460 C   0  0  0  0  0  0  0  0  0  0  0  0
    7.7380   -5.8020   26.5130 C   0  0  0  0  0  0  0  0  0  0  0  0
    7.1510   -4.6540   28.4680 C   0  0  0  0  0  0  0  0  0  0  0  0
    5.4990   -5.5580   27.0760 C   0  0  0  0  0  0  0  0  0  0  0  0
    5.1190   -6.3280   28.3190 C   0  0  0  0  0  0  0  0  0  0  0  0
    6.3290   -6.7020   29.2110 C   0  0  0  0  0  0  0  0  0  0  0  0
    4.3000   -7.3860   28.0350 C   0  0  0  0  0  0  0  0  0  0  0  0
    4.3500   -5.4650   29.2430 C   0  0  0  0  0  0  0  0  0  0  0  0
    6.7550   -2.7340   23.3110 C   0  0  0  0  0  0  0  0  0  0  0  0
    7.5720   -3.1910   22.3050 C   0  0  0  0  0  0  0  0  0  0  0  0
  1  2  1  0
  2  3  2  0
  2  4  1  0
  4  5  1  0
  5  6  1  0
  6  7  1  0
  7  8  1  0
  8  9  2  0
  8 10  1  0
 11 10  1  0
 11 12  1  0
 11 13  1  0
 11 14  1  0
 15 14  1  0
 15 16  1  0
 15 17  1  0
 15 18  1  0
  7 19  1  0
  4 20  1  0
 19 20  1  0
M  END
