piperidine-amides-8137-covalent
     RDKit          3D

 26 27  0  0  0  0  0  0  0  0999 V2000
    7.0410   -3.2870   19.2670 C   0  0  0  0  0  0  0  0  0  0  0  0
    6.3360   -4.0770   20.2810 C   0  0  0  0  0  0  0  0  0  0  0  0
    5.3260   -4.7120   19.9340 O   0  0  0  0  0  0  0  0  0  0  0  0
    6.8130   -4.1490   21.6140 N   0  0  0  0  0  0  0  0  0  0  0  0
    6.6340   -5.3830   22.3250 C   0  0  0  0  0  0  0  0  0  0  0  0
    6.0960   -5.1270   23.7070 C   0  0  0  0  0  0  0  0  0  0  0  0
    6.0740   -3.6310   23.9470 C   0  0  0  0  0  0  0  0  0  0  0  0
    5.5750   -3.3120   25.3240 C   0  0  0  0  0  0  0  0  0  0  0  0
    4.3810   -3.0450   25.4270 O   0  0  0  0  0  0  0  0  0  0  0  0
    6.4890   -3.3470   26.3680 N   0  0  0  0  0  0  0  0  0  0  0  0
    6.1750   -2.9960   27.7100 C   0  0  0  0  0  0  0  0  0  0  0  0
    5.6470   -4.0040   28.5420 C   0  0  0  0  0  0  0  0  0  0  0  0
    4.5570   -3.7230   29.3390 C   0  0  0  0  0  0  0  0  0  0  0  0
    3.9510   -4.6430   30.2060 C   0  0  0  0  0  0  0  0  0  0  0  0
    4.5620   -6.0160   30.2400 C   0  0  0  0  0  0  0  0  0  0  0  0
    3.9240   -7.0620   31.1890 C   0  0  0  0  0  0  0  0  0  0  0  0
    4.7900   -7.8410   31.6600 O   0  0  0  0  0  0  0  0  0  0  0  0
    2.5540   -7.1330   31.4960 N   0  0  0  0  0  0  0  0  0  0  0  0
    1.9920   -8.4180   31.2080 C   0  0  0  0  0  0  0  0  0  0  0  0
    0.5170   -8.3680   31.4880 C   0  0  0  0  0  0  0  0  0  0  0  0
    0.1660   -9.2930   32.6820 C   0  0  0  0  0  0  0  0  0  0  0  0
    0.8340  -10.4940   32.7490 C   0  0  0  0  0  0  0  0  0  0  0  0
    5.6400   -6.3210   29.4600 C   0  0  0  0  0  0  0  0  0  0  0  0
    6.1920   -5.2470   28.5770 C   0  0  0  0  0  0  0  0  0  0  0  0
    7.4740   -3.0660   23.6810 C   0  0  0  0  0  0  0  0  0  0  0  0
    7.6250   -3.1120   22.1790 C   0  0  0  0  0  0  0  0  0  0  0  0
  1  2  1  0
  2  3  2  0
  2  4  1  0
  4  5  1  0
  5  6  1  0
  6  7  1  0
  7  8  1  0
  8  9  2  0
  8 10  1  0
 10 11  1  0
 11 12  1  0
 12 13  2  0
 13 14  1  0
 14 15  2  0
 15 16  1  0
 16 17  2  0
 16 18  1  0
 18 19  1  0
 19 20  1  0
 20 21  1  0
 21 22  1  0
 15 23  1  0
 12 24  1  0
 23 24  2  0
  7 25  1  0
  4 26  1  0
 25 26  1  0
M  END
