piperidine-amides-31287-covalent
     RDKit          3D

 27 29  0  0  0  0  0  0  0  0999 V2000
    7.0450   -3.3460   19.5090 C   0  0  0  0  0  0  0  0  0  0  0  0
    6.3870   -4.2120   20.4720 C   0  0  0  0  0  0  0  0  0  0  0  0
    5.4670   -4.9770   20.0190 O   0  0  0  0  0  0  0  0  0  0  0  0
    6.7300   -4.2470   21.8630 N   0  0  0  0  0  0  0  0  0  0  0  0
    7.6710   -3.1860   22.3620 C   0  0  0  0  0  0  0  0  0  0  0  0
    7.2420   -2.9100   23.8780 C   0  0  0  0  0  0  0  0  0  0  0  0
    6.0320   -3.7700   24.1070 C   0  0  0  0  0  0  0  0  0  0  0  0
    4.8880   -3.3590   25.1930 C   0  0  0  0  0  0  0  0  0  0  0  0
    3.8380   -3.4100   24.5850 O   0  0  0  0  0  0  0  0  0  0  0  0
    5.2220   -3.0630   26.4160 N   0  0  0  0  0  0  0  0  0  0  0  0
    5.1900   -2.6000   27.7050 C   0  0  0  0  0  0  0  0  0  0  0  0
    5.0080   -3.1480   28.9450 C   0  0  0  0  0  0  0  0  0  0  0  0
    5.3850   -4.5240   28.7780 N   0  0  0  0  0  0  0  0  0  0  0  0
    4.4950   -5.5340   28.7250 C   0  0  0  0  0  0  0  0  0  0  0  0
    4.4110   -6.3640   27.6980 N   0  0  0  0  0  0  0  0  0  0  0  0
    3.5600   -7.4230   27.5260 C   0  0  0  0  0  0  0  0  0  0  0  0
    2.5060   -7.7630   28.6580 C   0  0  0  0  0  0  0  0  0  0  0  0
    2.5980   -6.8700   29.7490 C   0  0  0  0  0  0  0  0  0  0  0  0
    3.5190   -5.8510   29.7570 C   0  0  0  0  0  0  0  0  0  0  0  0
    3.2240   -5.1820   31.1100 C   0  0  0  0  0  0  0  0  0  0  0  0
    3.5790   -3.8970   31.2920 F   0  0  0  0  0  0  0  0  0  0  0  0
    3.8920   -5.8650   32.1610 F   0  0  0  0  0  0  0  0  0  0  0  0
    1.8580   -5.2400   31.2940 F   0  0  0  0  0  0  0  0  0  0  0  0
    6.3920   -4.5280   27.8920 C   0  0  0  0  0  0  0  0  0  0  0  0
    6.4280   -3.3920   27.0600 C   0  0  0  0  0  0  0  0  0  0  0  0
    6.2540   -5.2510   23.8660 C   0  0  0  0  0  0  0  0  0  0  0  0
    6.6210   -5.5090   22.5750 C   0  0  0  0  0  0  0  0  0  0  0  0
  1  2  1  0
  2  3  2  0
  2  4  1  0
  4  5  1  0
  5  6  1  0
  6  7  1  0
  7  8  1  0
  8  9  2  0
  8 10  1  0
 10 11  1  0
 11 12  1  0
 12 13  1  0
 13 14  1  0
 14 15  2  0
 15 16  1  0
 16 17  2  0
 17 18  1  0
 14 19  1  0
 18 19  2  0
 19 20  1  0
 20 21  1  0
 20 22  1  0
 20 23  1  0
 13 24  1  0
 10 25  1  0
 24 25  1  0
  7 26  1  0
  4 27  1  0
 26 27  1  0
M  END
