piperidine-amides-274-covalent
     RDKit          3D

 26 27  0  0  0  0  0  0  0  0999 V2000
    7.1880   -3.2820   19.3330 C   0  0  0  0  0  0  0  0  0  0  0  0
    6.4390   -4.0680   20.2910 C   0  0  0  0  0  0  0  0  0  0  0  0
    5.3420   -4.5920   19.9090 O   0  0  0  0  0  0  0  0  0  0  0  0
    6.9070   -4.3120   21.5990 N   0  0  0  0  0  0  0  0  0  0  0  0
    7.7350   -3.2660   22.2440 C   0  0  0  0  0  0  0  0  0  0  0  0
    6.6310   -2.5760   23.1300 C   0  0  0  0  0  0  0  0  0  0  0  0
    6.1130   -3.6630   24.0430 C   0  0  0  0  0  0  0  0  0  0  0  0
    5.2330   -3.0490   25.2320 C   0  0  0  0  0  0  0  0  0  0  0  0
    4.5460   -2.1260   24.8400 O   0  0  0  0  0  0  0  0  0  0  0  0
    5.4780   -3.6980   26.2960 N   0  0  0  0  0  0  0  0  0  0  0  0
    5.7990   -4.3870   27.4230 C   0  0  1  0  0  0  0  0  0  0  0  0
    6.2330   -4.0750   28.6800 C   0  0  0  0  0  0  0  0  0  0  0  0
    4.8760   -5.5490   27.6450 C   0  0  0  0  0  0  0  0  0  0  0  0
    3.6590   -5.3250   26.8400 C   0  0  0  0  0  0  0  0  0  0  0  0
    2.8270   -6.1780   27.8230 C   0  0  0  0  0  0  0  0  0  0  0  0
    3.5750   -7.1720   28.4580 F   0  0  0  0  0  0  0  0  0  0  0  0
    1.7890   -6.8150   27.1320 F   0  0  0  0  0  0  0  0  0  0  0  0
    2.2350   -5.3960   28.7780 F   0  0  0  0  0  0  0  0  0  0  0  0
    7.0190   -5.0760   27.0260 C   0  0  0  0  0  0  0  0  0  0  0  0
    7.7130   -5.5600   28.1800 C   0  0  0  0  0  0  0  0  0  0  0  0
    8.9080   -6.1150   27.4000 C   0  0  0  0  0  0  0  0  0  0  0  0
    9.1110   -6.1000   25.9000 C   0  0  0  0  0  0  0  0  0  0  0  0
    8.2400   -5.5840   25.0940 C   0  0  0  0  0  0  0  0  0  0  0  0
    7.1990   -5.0690   25.6590 C   0  0  0  0  0  0  0  0  0  0  0  0
    5.4900   -4.8570   23.3200 C   0  0  0  0  0  0  0  0  0  0  0  0
    6.3770   -5.3810   22.4010 C   0  0  0  0  0  0  0  0  0  0  0  0
  1  2  1  0
  2  3  2  0
  2  4  1  0
  4  5  1  0
  5  6  1  0
  6  7  1  0
  7  8  1  0
  8  9  2  0
  8 10  1  0
 11 10  1  0
 11 12  1  1
 11 13  1  0
 13 14  1  0
 14 15  1  0
 15 16  1  0
 15 17  1  0
 15 18  1  0
 11 19  1  0
 19 20  2  0
 20 21  1  0
 21 22  2  0
 22 23  1  0
 19 24  1  0
 23 24  2  0
  7 25  1  0
  4 26  1  0
 25 26  1  0
M  END
