piperidine-amides-30827-covalent
     RDKit          3D

 25 27  0  0  0  0  0  0  0  0999 V2000
    7.0290   -3.3370   19.3090 C   0  0  0  0  0  0  0  0  0  0  0  0
    6.2660   -4.1660   20.2480 C   0  0  0  0  0  0  0  0  0  0  0  0
    5.1940   -4.6540   19.8870 O   0  0  0  0  0  0  0  0  0  0  0  0
    6.7280   -4.4850   21.5210 N   0  0  0  0  0  0  0  0  0  0  0  0
    6.3650   -5.7010   22.1890 C   0  0  0  0  0  0  0  0  0  0  0  0
    6.2600   -5.3270   23.6410 C   0  0  0  0  0  0  0  0  0  0  0  0
    5.8740   -3.8820   23.8500 C   0  0  0  0  0  0  0  0  0  0  0  0
    5.4470   -3.5490   25.2260 C   0  0  0  0  0  0  0  0  0  0  0  0
    4.3570   -2.9370   25.4230 O   0  0  0  0  0  0  0  0  0  0  0  0
    6.1930   -3.8870   26.3630 N   0  0  0  0  0  0  0  0  0  0  0  0
    6.9350   -5.1680   26.2680 C   0  0  0  0  0  0  0  0  0  0  0  0
    7.1110   -5.7850   27.5740 C   0  0  0  0  0  0  0  0  0  0  0  0
    7.3100   -4.8000   28.5780 C   0  0  0  0  0  0  0  0  0  0  0  0
    8.7840   -3.9370   28.2890 S   0  0  0  0  0  0  0  0  0  0  0  0
    8.7540   -3.2690   26.6720 C   0  0  0  0  0  0  0  0  0  0  0  0
    9.4200   -4.1390   25.6200 C   0  0  0  0  0  0  0  0  0  0  0  0
    9.4230   -3.5620   24.2350 C   0  0  0  0  0  0  0  0  0  0  0  0
    8.8880   -2.3560   23.8880 C   0  0  0  0  0  0  0  0  0  0  0  0
    9.0010   -1.7720   22.2360 Cl  0  0  0  0  0  0  0  0  0  0  0  0
    8.2800   -1.6350   24.8840 C   0  0  0  0  0  0  0  0  0  0  0  0
    8.2070   -2.0890   26.3130 C   0  0  0  0  0  0  0  0  0  0  0  0
    6.2530   -3.9640   28.8090 C   0  0  0  0  0  0  0  0  0  0  0  0
    5.6790   -3.2920   27.6000 C   0  0  0  0  0  0  0  0  0  0  0  0
    6.9780   -3.0050   23.4030 C   0  0  0  0  0  0  0  0  0  0  0  0
    7.5480   -3.5140   22.1470 C   0  0  0  0  0  0  0  0  0  0  0  0
  1  2  1  0
  2  3  2  0
  2  4  1  0
  4  5  1  0
  5  6  1  0
  6  7  1  0
  7  8  1  0
  8  9  2  0
  8 10  1  0
 10 11  1  0
 11 12  1  0
 12 13  1  0
 13 14  1  0
 14 15  1  0
 15 16  2  0
 16 17  1  0
 17 18  2  0
 18 19  1  0
 18 20  1  0
 15 21  1  0
 20 21  2  0
 13 22  1  0
 10 23  1  0
 22 23  1  0
  7 24  1  0
  4 25  1  0
 24 25  1  0
M  END
