piperidine-amides-24667-covalent
     RDKit          3D

 24 25  0  0  0  0  0  0  0  0999 V2000
    7.0630   -3.3340   19.3300 C   0  0  0  0  0  0  0  0  0  0  0  0
    6.3930   -4.2010   20.3120 C   0  0  0  0  0  0  0  0  0  0  0  0
    5.3640   -4.8260   19.9800 O   0  0  0  0  0  0  0  0  0  0  0  0
    6.9250   -4.3830   21.5990 N   0  0  0  0  0  0  0  0  0  0  0  0
    6.6730   -5.6530   22.2560 C   0  0  0  0  0  0  0  0  0  0  0  0
    6.3110   -5.3550   23.7160 C   0  0  0  0  0  0  0  0  0  0  0  0
    6.0430   -3.8740   23.7860 C   0  0  0  0  0  0  0  0  0  0  0  0
    5.4650   -3.4860   25.0780 C   0  0  0  0  0  0  0  0  0  0  0  0
    4.4270   -2.7960   25.0700 O   0  0  0  0  0  0  0  0  0  0  0  0
    6.0620   -3.8670   26.2860 N   0  0  0  0  0  0  0  0  0  0  0  0
    6.4530   -2.8130   27.1500 C   0  0  0  0  0  0  0  0  0  0  0  0
    6.7280   -3.3500   28.5260 C   0  0  0  0  0  0  0  0  0  0  0  0
    5.6240   -3.5040   29.2580 C   0  0  1  0  0  0  0  0  0  0  0  0
    5.0260   -2.3560   29.7700 C   0  0  0  0  0  0  0  0  0  0  0  0
    4.1480   -2.6240   30.8180 C   0  0  0  0  0  0  0  0  0  0  0  0
    5.9410   -1.3930   30.1230 C   0  0  0  0  0  0  0  0  0  0  0  0
    4.3920   -1.6440   28.7680 C   0  0  0  0  0  0  0  0  0  0  0  0
    4.8410   -4.2400   28.4470 C   0  0  0  0  0  0  0  0  0  0  0  0
    5.7840   -4.7500   27.4070 C   0  0  1  0  0  0  0  0  0  0  0  0
    4.5090   -5.4900   27.4290 C   0  0  0  0  0  0  0  0  0  0  0  0
    4.5700   -6.7440   28.0650 N   0  0  0  0  0  0  0  0  0  0  0  0
    3.4730   -5.0040   26.8940 O   0  0  0  0  0  0  0  0  0  0  0  0
    7.3240   -3.1530   23.5260 C   0  0  0  0  0  0  0  0  0  0  0  0
    7.6570   -3.3160   22.2210 C   0  0  0  0  0  0  0  0  0  0  0  0
  1  2  1  0
  2  3  2  0
  2  4  1  0
  4  5  1  0
  5  6  1  0
  6  7  1  0
  7  8  1  0
  8  9  2  0
  8 10  1  0
 10 11  1  0
 11 12  1  0
 12 13  1  0
 13 14  1  6
 14 15  1  0
 14 16  1  0
 14 17  1  0
 13 18  1  0
 10 19  1  0
 18 19  1  0
 19 20  1  6
 20 21  1  0
 20 22  2  0
  7 23  1  0
  4 24  1  0
 23 24  1  0
M  END
