piperidine-amides-4994-covalent
     RDKit          3D

 23 24  0  0  0  0  0  0  0  0999 V2000
    7.0720   -3.3080   19.2600 C   0  0  0  0  0  0  0  0  0  0  0  0
    6.3650   -4.1290   20.2740 C   0  0  0  0  0  0  0  0  0  0  0  0
    5.3070   -4.6660   19.9100 O   0  0  0  0  0  0  0  0  0  0  0  0
    6.9030   -4.3140   21.5510 N   0  0  0  0  0  0  0  0  0  0  0  0
    7.6730   -3.2720   22.1460 C   0  0  0  0  0  0  0  0  0  0  0  0
    7.2900   -2.9220   23.5040 C   0  0  0  0  0  0  0  0  0  0  0  0
    6.7160   -4.0100   24.3160 C   0  0  0  0  0  0  0  0  0  0  0  0
    6.0320   -3.4010   25.4740 C   0  0  0  0  0  0  0  0  0  0  0  0
    4.7850   -3.3000   25.4630 O   0  0  0  0  0  0  0  0  0  0  0  0
    6.8100   -2.9490   26.5520 N   0  0  0  0  0  0  0  0  0  0  0  0
    6.6390   -1.6390   27.2200 C   0  0  0  0  0  0  0  0  0  0  0  0
    7.1470   -1.5600   28.5900 C   0  0  0  0  0  0  0  0  0  0  0  0
    7.0270   -0.3380   29.3350 C   0  0  0  0  0  0  0  0  0  0  0  0
    6.4230    0.7260   28.6990 C   0  0  0  0  0  0  0  0  0  0  0  0
    5.9300    0.6800   27.3900 C   0  0  0  0  0  0  0  0  0  0  0  0
    6.0150   -0.4660   26.6190 C   0  0  0  0  0  0  0  0  0  0  0  0
    5.5160   -0.4240   25.3550 C   0  0  0  0  0  0  0  0  0  0  0  0
    6.2770   -0.5590   24.3880 O   0  0  0  0  0  0  0  0  0  0  0  0
    4.2020   -0.2050   25.2910 N   0  0  0  0  0  0  0  0  0  0  0  0
    3.8070    1.1470   24.7930 C   0  0  0  0  0  0  0  0  0  0  0  0
    3.3380   -1.2150   25.7930 C   0  0  0  0  0  0  0  0  0  0  0  0
    5.8510   -4.9770   23.5970 C   0  0  0  0  0  0  0  0  0  0  0  0
    6.5860   -5.4680   22.3760 C   0  0  0  0  0  0  0  0  0  0  0  0
  1  2  1  0
  2  3  2  0
  2  4  1  0
  4  5  1  0
  5  6  1  0
  6  7  1  0
  7  8  1  0
  8  9  2  0
  8 10  1  0
 10 11  1  0
 11 12  2  0
 12 13  1  0
 13 14  2  0
 14 15  1  0
 11 16  1  0
 15 16  2  0
 16 17  1  0
 17 18  2  0
 17 19  1  0
 19 20  1  0
 19 21  1  0
  7 22  1  0
  4 23  1  0
 22 23  1  0
M  END
