piperidine-amides-25117-covalent
     RDKit          3D

 24 26  0  0  0  0  0  0  0  0999 V2000
    7.0780   -3.3600   19.3450 C   0  0  0  0  0  0  0  0  0  0  0  0
    6.4270   -4.2500   20.3360 C   0  0  0  0  0  0  0  0  0  0  0  0
    5.3900   -4.8050   19.9770 O   0  0  0  0  0  0  0  0  0  0  0  0
    7.0160   -4.4810   21.5880 N   0  0  0  0  0  0  0  0  0  0  0  0
    6.6060   -5.5900   22.3890 C   0  0  0  0  0  0  0  0  0  0  0  0
    5.7150   -5.0680   23.4810 C   0  0  0  0  0  0  0  0  0  0  0  0
    6.3390   -3.8560   24.1910 C   0  0  0  0  0  0  0  0  0  0  0  0
    5.3030   -3.2640   25.0600 C   0  0  0  0  0  0  0  0  0  0  0  0
    4.5180   -2.4710   24.5490 O   0  0  0  0  0  0  0  0  0  0  0  0
    5.2090   -3.5410   26.4380 N   0  0  0  0  0  0  0  0  0  0  0  0
    6.3940   -3.1810   27.1180 C   0  0  0  0  0  0  0  0  0  0  0  0
    6.5250   -4.2160   28.1820 C   0  0  1  0  0  0  0  0  0  0  0  0
    7.5640   -3.8860   28.9350 O   0  0  0  0  0  0  0  0  0  0  0  0
    5.5260   -4.3840   29.0010 C   0  0  1  0  0  0  0  0  0  0  0  0
    5.3380   -3.2810   29.7940 O   0  0  0  0  0  0  0  0  0  0  0  0
    4.5420   -4.7870   28.2220 C   0  0  0  0  0  0  0  0  0  0  0  0
    4.0880   -3.8690   27.3010 C   0  0  0  0  0  0  0  0  0  0  0  0
    2.7280   -4.1970   26.6430 C   0  0  0  0  0  0  0  0  0  0  0  0
    2.7240   -3.1970   25.5310 C   0  0  0  0  0  0  0  0  0  0  0  0
    3.3300   -2.0080   25.7620 O   0  0  0  0  0  0  0  0  0  0  0  0
    3.7840   -1.7070   27.0500 C   0  0  0  0  0  0  0  0  0  0  0  0
    3.3500   -2.7430   28.0320 C   0  0  0  0  0  0  0  0  0  0  0  0
    6.9150   -2.7910   23.2870 C   0  0  0  0  0  0  0  0  0  0  0  0
    7.7780   -3.4440   22.2410 C   0  0  0  0  0  0  0  0  0  0  0  0
  1  2  1  0
  2  3  2  0
  2  4  1  0
  4  5  1  0
  5  6  1  0
  6  7  1  0
  7  8  1  0
  8  9  2  0
  8 10  1  0
 10 11  1  0
 11 12  1  0
 12 13  1  1
 12 14  1  0
 14 15  1  6
 14 16  1  0
 17 10  1  0
 16 17  1  0
 17 18  1  0
 18 19  1  0
 19 20  1  0
 20 21  1  0
 17 22  1  0
 21 22  1  0
  7 23  1  0
  4 24  1  0
 23 24  1  0
M  END
