piperidine-amides-10330-covalent
     RDKit          3D

 24 26  0  0  0  0  0  0  0  0999 V2000
    7.0740   -3.2780   19.2620 C   0  0  0  0  0  0  0  0  0  0  0  0
    6.3590   -4.0480   20.2890 C   0  0  0  0  0  0  0  0  0  0  0  0
    5.3060   -4.6280   19.9130 O   0  0  0  0  0  0  0  0  0  0  0  0
    6.8590   -4.1550   21.5920 N   0  0  0  0  0  0  0  0  0  0  0  0
    7.7720   -3.1670   22.1290 C   0  0  0  0  0  0  0  0  0  0  0  0
    7.3860   -2.9560   23.5560 C   0  0  0  0  0  0  0  0  0  0  0  0
    6.0460   -3.5830   23.8020 C   0  0  0  0  0  0  0  0  0  0  0  0
    5.5990   -3.3320   25.1870 C   0  0  0  0  0  0  0  0  0  0  0  0
    4.3790   -3.1520   25.3870 O   0  0  0  0  0  0  0  0  0  0  0  0
    6.4670   -3.2790   26.2860 N   0  0  0  0  0  0  0  0  0  0  0  0
    5.9430   -3.0460   27.5970 C   0  0  0  0  0  0  0  0  0  0  0  0
    6.4320   -3.9720   28.7070 C   0  0  0  0  0  0  0  0  0  0  0  0
    5.8860   -5.1660   29.0930 C   0  0  0  0  0  0  0  0  0  0  0  0
    6.0780   -6.4060   28.5760 C   0  0  0  0  0  0  0  0  0  0  0  0
    5.3330   -7.3030   29.2940 C   0  0  0  0  0  0  0  0  0  0  0  0
    4.6970   -6.5770   30.2450 N   0  0  0  0  0  0  0  0  0  0  0  0
    3.8460   -6.8680   31.2460 C   0  0  0  0  0  0  0  0  0  0  0  0
    4.4880   -7.3410   32.3940 C   0  0  0  0  0  0  0  0  0  0  0  0
    3.6440   -8.3110   33.2220 C   0  0  0  0  0  0  0  0  0  0  0  0
    2.5060   -8.4720   32.2300 C   0  0  0  0  0  0  0  0  0  0  0  0
    2.8270   -7.7290   30.9750 C   0  0  0  0  0  0  0  0  0  0  0  0
    5.0240   -5.2780   30.1240 N   0  0  0  0  0  0  0  0  0  0  0  0
    6.0680   -5.0720   23.5700 C   0  0  0  0  0  0  0  0  0  0  0  0
    6.7050   -5.3850   22.3780 C   0  0  0  0  0  0  0  0  0  0  0  0
  1  2  1  0
  2  3  2  0
  2  4  1  0
  4  5  1  0
  5  6  1  0
  6  7  1  0
  7  8  1  0
  8  9  2  0
  8 10  1  0
 10 11  1  0
 11 12  1  0
 12 13  1  0
 13 14  1  0
 14 15  2  0
 15 16  1  0
 16 17  1  0
 17 18  1  0
 18 19  1  0
 19 20  1  0
 17 21  1  0
 20 21  1  0
 13 22  2  0
 16 22  1  0
  7 23  1  0
  4 24  1  0
 23 24  1  0
M  END
