piperidine-amides-33655-covalent
     RDKit          3D

 30 32  0  0  0  0  0  0  0  0999 V2000
    7.1110   -3.3430   19.2700 C   0  0  0  0  0  0  0  0  0  0  0  0
    6.3830   -4.1170   20.2870 C   0  0  0  0  0  0  0  0  0  0  0  0
    5.3030   -4.6370   19.9240 O   0  0  0  0  0  0  0  0  0  0  0  0
    6.9210   -4.3190   21.5810 N   0  0  0  0  0  0  0  0  0  0  0  0
    7.5980   -3.2430   22.2250 C   0  0  0  0  0  0  0  0  0  0  0  0
    7.1460   -2.9080   23.5760 C   0  0  0  0  0  0  0  0  0  0  0  0
    6.4440   -3.9720   24.3420 C   0  0  0  0  0  0  0  0  0  0  0  0
    5.5140   -3.4370   25.3990 C   0  0  0  0  0  0  0  0  0  0  0  0
    4.3000   -3.4540   25.1340 O   0  0  0  0  0  0  0  0  0  0  0  0
    5.8860   -2.9240   26.6750 N   0  0  0  0  0  0  0  0  0  0  0  0
    5.9470   -1.5160   26.9550 C   0  0  0  0  0  0  0  0  0  0  0  0
    6.5500   -0.9900   28.1810 C   0  0  0  0  0  0  0  0  0  0  0  0
    7.1640   -1.7990   29.2630 C   0  0  0  0  0  0  0  0  0  0  0  0
    8.3800   -1.3480   29.6530 C   0  0  0  0  0  0  0  0  0  0  0  0
    7.2030   -0.9190   30.5170 C   0  0  0  0  0  0  0  0  0  0  0  0
    6.6670    0.4100   28.5880 C   0  0  0  0  0  0  0  0  0  0  0  0
    6.1050    1.4010   27.6420 C   0  0  0  0  0  0  0  0  0  0  0  0
    5.4600    1.0140   26.3600 C   0  0  0  0  0  0  0  0  0  0  0  0
    5.4440   -0.5010   26.1310 C   0  0  0  0  0  0  0  0  0  0  0  0
    4.7790   -0.9790   24.8260 C   0  0  0  0  0  0  0  0  0  0  0  0
    3.3700   -1.3060   25.1650 C   0  0  0  0  0  0  0  0  0  0  0  0
    4.8820   -0.1580   23.7160 C   0  0  0  0  0  0  0  0  0  0  0  0
    5.2800   -3.7290   27.7420 C   0  0  0  0  0  0  0  0  0  0  0  0
    6.0570   -4.8780   28.3570 C   0  0  0  0  0  0  0  0  0  0  0  0
    5.4140   -5.6470   29.3180 C   0  0  0  0  0  0  0  0  0  0  0  0
    4.1490   -5.0760   29.9420 C   0  0  0  0  0  0  0  0  0  0  0  0
    3.8580   -3.6180   29.6790 C   0  0  0  0  0  0  0  0  0  0  0  0
    4.6420   -2.8960   28.6510 C   0  0  0  0  0  0  0  0  0  0  0  0
    5.6660   -4.9030   23.4360 C   0  0  0  0  0  0  0  0  0  0  0  0
    6.5690   -5.4800   22.3490 C   0  0  0  0  0  0  0  0  0  0  0  0
  1  2  1  0
  2  3  2  0
  2  4  1  0
  4  5  1  0
  5  6  1  0
  6  7  1  0
  7  8  1  0
  8  9  2  0
  8 10  1  0
 10 11  1  0
 11 12  2  0
 12 13  1  0
 13 14  1  0
 13 15  1  0
 12 16  1  0
 16 17  2  0
 17 18  1  0
 11 19  1  0
 18 19  2  0
 19 20  1  0
 20 21  1  0
 20 22  1  0
 10 23  1  0
 23 24  1  0
 24 25  1  0
 25 26  1  0
 26 27  1  0
 23 28  1  0
 27 28  1  0
  7 29  1  0
  4 30  1  0
 29 30  1  0
M  END
