piperidine-amides-9162-covalent
     RDKit          3D

 21 22  0  0  0  0  0  0  0  0999 V2000
    7.0970   -3.3060   19.3150 C   0  0  0  0  0  0  0  0  0  0  0  0
    6.3160   -4.0560   20.3010 C   0  0  0  0  0  0  0  0  0  0  0  0
    5.2860   -4.6350   19.9200 O   0  0  0  0  0  0  0  0  0  0  0  0
    6.7240   -4.1840   21.6440 N   0  0  0  0  0  0  0  0  0  0  0  0
    6.6130   -5.4510   22.3420 C   0  0  0  0  0  0  0  0  0  0  0  0
    6.0590   -5.1450   23.7130 C   0  0  0  0  0  0  0  0  0  0  0  0
    6.0210   -3.6750   23.9910 C   0  0  0  0  0  0  0  0  0  0  0  0
    5.5920   -3.3180   25.3730 C   0  0  0  0  0  0  0  0  0  0  0  0
    4.3810   -3.0260   25.5980 O   0  0  0  0  0  0  0  0  0  0  0  0
    6.4780   -3.2680   26.4730 N   0  0  0  0  0  0  0  0  0  0  0  0
    6.1360   -3.7650   27.8410 C   0  0  0  0  0  0  0  0  0  0  0  0
    5.4590   -5.0920   27.8000 C   0  0  0  0  0  0  0  0  0  0  0  0
    6.1480   -6.2360   27.2080 C   0  0  0  0  0  0  0  0  0  0  0  0
    4.1830   -5.0290   27.0060 C   0  0  0  0  0  0  0  0  0  0  0  0
    5.0910   -5.6120   29.1460 C   0  0  0  0  0  0  0  0  0  0  0  0
    4.1030   -5.1370   30.0700 C   0  0  0  0  0  0  0  0  0  0  0  0
    4.1690   -5.9710   31.1520 C   0  0  0  0  0  0  0  0  0  0  0  0
    5.1210   -7.0550   31.1570 C   0  0  0  0  0  0  0  0  0  0  0  0
    6.0370   -7.0360   29.6470 S   0  0  0  0  0  0  0  0  0  0  0  0
    7.3640   -3.0050   23.6860 C   0  0  0  0  0  0  0  0  0  0  0  0
    7.6030   -3.1530   22.1790 C   0  0  0  0  0  0  0  0  0  0  0  0
  1  2  1  0
  2  3  2  0
  2  4  1  0
  4  5  1  0
  5  6  1  0
  6  7  1  0
  7  8  1  0
  8  9  2  0
  8 10  1  0
 10 11  1  0
 12 11  1  0
 12 13  1  0
 12 14  1  0
 12 15  1  0
 15 16  2  0
 16 17  1  0
 17 18  2  0
 15 19  1  0
 18 19  1  0
  7 20  1  0
  4 21  1  0
 20 21  1  0
M  END
