piperidine-amides-23814-covalent
     RDKit          3D

 22 23  0  0  0  0  0  0  0  0999 V2000
    7.0980   -3.2870   19.2280 C   0  0  0  0  0  0  0  0  0  0  0  0
    6.3850   -4.0400   20.2740 C   0  0  0  0  0  0  0  0  0  0  0  0
    5.3210   -4.6050   19.9190 O   0  0  0  0  0  0  0  0  0  0  0  0
    6.9090   -4.1640   21.5980 N   0  0  0  0  0  0  0  0  0  0  0  0
    6.5170   -5.3000   22.3620 C   0  0  0  0  0  0  0  0  0  0  0  0
    5.9700   -4.9310   23.6610 C   0  0  0  0  0  0  0  0  0  0  0  0
    6.1070   -3.4950   23.9350 C   0  0  0  0  0  0  0  0  0  0  0  0
    5.6560   -3.1380   25.3230 C   0  0  0  0  0  0  0  0  0  0  0  0
    4.9600   -3.9560   25.9470 O   0  0  0  0  0  0  0  0  0  0  0  0
    5.9640   -1.9060   25.9390 N   0  0  0  0  0  0  0  0  0  0  0  0
    6.5140   -1.7170   27.1780 C   0  0  0  0  0  0  0  0  0  0  0  0
    5.5060   -0.8410   27.6760 C   0  0  0  0  0  0  0  0  0  0  0  0
    4.5080   -1.1090   28.5450 N   0  0  0  0  0  0  0  0  0  0  0  0
    4.8900   -0.3230   29.9780 S   0  0  0  0  0  0  0  0  0  0  0  0
    4.4380   -1.1620   31.1420 O   0  0  0  0  0  0  0  0  0  0  0  0
    4.2520    1.0170   30.0730 O   0  0  0  0  0  0  0  0  0  0  0  0
    6.5760   -0.0780   30.1170 N   0  0  0  0  0  0  0  0  0  0  0  0
    6.9600    1.2070   30.0980 C   0  0  0  0  0  0  0  0  0  0  0  0
    7.3920   -1.0790   29.6800 C   0  0  0  0  0  0  0  0  0  0  0  0
    4.8290   -0.9690   26.2070 C   0  0  0  0  0  0  0  0  0  0  0  0
    7.4600   -2.9550   23.6480 C   0  0  0  0  0  0  0  0  0  0  0  0
    7.6930   -3.0480   22.1250 C   0  0  0  0  0  0  0  0  0  0  0  0
  1  2  1  0
  2  3  2  0
  2  4  1  0
  4  5  1  0
  5  6  1  0
  6  7  1  0
  7  8  1  0
  8  9  2  0
  8 10  1  0
 10 11  1  0
 11 12  1  0
 12 13  1  0
 14 13  1  0
 14 15  2  0
 14 16  2  0
 14 17  1  0
 17 18  1  0
 17 19  1  0
 10 20  1  0
 12 20  1  0
  7 21  1  0
  4 22  1  0
 21 22  1  0
M  END
