piperidine-amides-23970-covalent
     RDKit          3D

 23 24  0  0  0  0  0  0  0  0999 V2000
    7.0280   -3.3760   19.3990 C   0  0  0  0  0  0  0  0  0  0  0  0
    6.4080   -4.2590   20.4030 C   0  0  0  0  0  0  0  0  0  0  0  0
    5.4230   -4.9350   20.0070 O   0  0  0  0  0  0  0  0  0  0  0  0
    6.9260   -4.3730   21.7300 N   0  0  0  0  0  0  0  0  0  0  0  0
    6.5760   -5.5160   22.5160 C   0  0  0  0  0  0  0  0  0  0  0  0
    6.0170   -5.1620   23.8240 C   0  0  0  0  0  0  0  0  0  0  0  0
    5.9530   -3.7070   24.0240 C   0  0  0  0  0  0  0  0  0  0  0  0
    5.2120   -3.2350   25.2720 C   0  0  0  0  0  0  0  0  0  0  0  0
    4.3640   -2.3470   25.1160 O   0  0  0  0  0  0  0  0  0  0  0  0
    5.3880   -3.7090   26.5940 N   0  0  0  0  0  0  0  0  0  0  0  0
    6.4160   -3.4730   27.4220 C   0  0  0  0  0  0  0  0  0  0  0  0
    6.5730   -4.5580   28.3860 C   0  0  0  0  0  0  0  0  0  0  0  0
    5.5330   -4.9780   29.1330 N   0  0  0  0  0  0  0  0  0  0  0  0
    5.0300   -6.3310   29.2320 C   0  0  0  0  0  0  0  0  0  0  0  0
    3.8430   -6.3410   29.9530 C   0  0  0  0  0  0  0  0  0  0  0  0
    3.3840   -5.0670   30.1640 F   0  0  0  0  0  0  0  0  0  0  0  0
    2.9090   -7.1200   29.2970 F   0  0  0  0  0  0  0  0  0  0  0  0
    4.4990   -7.0630   31.1300 C   0  0  0  0  0  0  0  0  0  0  0  0
    3.5970   -6.9900   32.1890 O   0  0  0  0  0  0  0  0  0  0  0  0
    4.8660   -3.6850   28.8390 C   0  0  0  0  0  0  0  0  0  0  0  0
    4.3070   -4.0850   27.4370 C   0  0  0  0  0  0  0  0  0  0  0  0
    7.2770   -3.0300   23.7690 C   0  0  0  0  0  0  0  0  0  0  0  0
    7.7090   -3.2900   22.3230 C   0  0  0  0  0  0  0  0  0  0  0  0
  1  2  1  0
  2  3  2  0
  2  4  1  0
  4  5  1  0
  5  6  1  0
  6  7  1  0
  7  8  1  0
  8  9  2  0
  8 10  1  0
 10 11  1  0
 11 12  1  0
 12 13  1  0
 13 14  1  0
 14 15  1  0
 15 16  1  0
 15 17  1  0
 15 18  1  0
 18 19  1  0
 13 20  1  0
 10 21  1  0
 20 21  1  0
  7 22  1  0
  4 23  1  0
 22 23  1  0
M  END
