piperidine-amides-31872-covalent
     RDKit          3D

 28 29  0  0  0  0  0  0  0  0999 V2000
    7.0500   -3.3290   19.2690 C   0  0  0  0  0  0  0  0  0  0  0  0
    6.3310   -4.0310   20.3110 C   0  0  0  0  0  0  0  0  0  0  0  0
    5.3260   -4.7170   19.9510 O   0  0  0  0  0  0  0  0  0  0  0  0
    6.7130   -4.0360   21.6730 N   0  0  0  0  0  0  0  0  0  0  0  0
    6.6370   -5.3520   22.3600 C   0  0  0  0  0  0  0  0  0  0  0  0
    5.8340   -5.0380   23.6980 C   0  0  0  0  0  0  0  0  0  0  0  0
    5.8720   -3.5430   23.9220 C   0  0  0  0  0  0  0  0  0  0  0  0
    4.9680   -3.1050   25.1770 C   0  0  0  0  0  0  0  0  0  0  0  0
    3.7980   -3.3650   24.9610 O   0  0  0  0  0  0  0  0  0  0  0  0
    5.6920   -2.6010   26.0830 N   0  0  0  0  0  0  0  0  0  0  0  0
    6.3360   -1.6570   26.8410 C   0  0  0  0  0  0  0  0  0  0  0  0
    6.8200   -1.5180   28.1160 C   0  0  0  0  0  0  0  0  0  0  0  0
    6.1200   -0.5500   28.8670 C   0  0  0  0  0  0  0  0  0  0  0  0
    5.7820    0.7510   28.2410 C   0  0  0  0  0  0  0  0  0  0  0  0
    5.0040    1.7460   29.1850 C   0  0  0  0  0  0  0  0  0  0  0  0
    4.6980    1.3340   30.5210 C   0  0  0  0  0  0  0  0  0  0  0  0
    4.0830    2.1460   31.2370 O   0  0  0  0  0  0  0  0  0  0  0  0
    4.6280    3.2960   31.7410 C   0  0  0  0  0  0  0  0  0  0  0  0
    5.0900   -0.0020   31.0450 C   0  0  0  0  0  0  0  0  0  0  0  0
    4.8210   -0.4430   32.3180 O   0  0  0  0  0  0  0  0  0  0  0  0
    3.6090   -1.0120   32.7210 C   0  0  0  0  0  0  0  0  0  0  0  0
    5.7970   -0.8750   30.1420 C   0  0  0  0  0  0  0  0  0  0  0  0
    6.2480   -3.8220   26.6500 C   0  0  0  0  0  0  0  0  0  0  0  0
    5.4530   -4.5430   27.4790 C   0  0  0  0  0  0  0  0  0  0  0  0
    5.9340   -4.3870   28.7600 C   0  0  0  0  0  0  0  0  0  0  0  0
    5.4330   -5.8680   27.0870 C   0  0  0  0  0  0  0  0  0  0  0  0
    7.1690   -2.8590   23.6930 C   0  0  0  0  0  0  0  0  0  0  0  0
    7.5970   -3.0680   22.2730 C   0  0  0  0  0  0  0  0  0  0  0  0
  1  2  1  0
  2  3  2  0
  2  4  1  0
  4  5  1  0
  5  6  1  0
  6  7  1  0
  7  8  1  0
  8  9  2  0
  8 10  1  0
 10 11  1  0
 11 12  1  0
 12 13  1  0
 13 14  2  0
 14 15  1  0
 15 16  2  0
 16 17  1  0
 17 18  1  0
 16 19  1  0
 19 20  1  0
 20 21  1  0
 13 22  1  0
 19 22  2  0
 10 23  1  0
 23 24  1  0
 24 25  1  0
 24 26  1  0
  7 27  1  0
  4 28  1  0
 27 28  1  0
M  END
