piperidine-amides-10320-covalent
     RDKit          3D

 24 24  0  0  0  0  0  0  0  0999 V2000
    7.0690   -3.2790   19.2860 C   0  0  0  0  0  0  0  0  0  0  0  0
    6.3430   -4.0790   20.2800 C   0  0  0  0  0  0  0  0  0  0  0  0
    5.2630   -4.5950   19.8950 O   0  0  0  0  0  0  0  0  0  0  0  0
    6.8580   -4.2950   21.5600 N   0  0  0  0  0  0  0  0  0  0  0  0
    6.5880   -5.5170   22.2720 C   0  0  0  0  0  0  0  0  0  0  0  0
    5.8760   -5.1640   23.5520 C   0  0  0  0  0  0  0  0  0  0  0  0
    6.5390   -4.0310   24.2960 C   0  0  0  0  0  0  0  0  0  0  0  0
    5.6090   -3.5360   25.3530 C   0  0  0  0  0  0  0  0  0  0  0  0
    4.3890   -3.4900   25.0690 O   0  0  0  0  0  0  0  0  0  0  0  0
    5.9880   -3.0930   26.6470 N   0  0  0  0  0  0  0  0  0  0  0  0
    6.6220   -3.9200   27.6650 C   0  0  2  0  0  0  0  0  0  0  0  0
    7.9300   -3.1710   27.9060 C   0  0  0  0  0  0  0  0  0  0  0  0
    8.8110   -3.5300   28.7130 O   0  0  0  0  0  0  0  0  0  0  0  0
    8.1920   -2.0040   27.2020 O   0  0  0  0  0  0  0  0  0  0  0  0
    8.3130   -2.1050   25.8080 C   0  0  0  0  0  0  0  0  0  0  0  0
    9.4130   -2.8420   25.4670 C   0  0  0  0  0  0  0  0  0  0  0  0
    9.7260   -4.0720   26.0250 C   0  0  0  0  0  0  0  0  0  0  0  0
    9.0030   -4.7560   26.9510 C   0  0  0  0  0  0  0  0  0  0  0  0
   10.8250   -4.7190   25.6760 C   0  0  0  0  0  0  0  0  0  0  0  0
    6.6360   -5.3290   27.4700 C   0  0  0  0  0  0  0  0  0  0  0  0
    5.2310   -4.8080   27.7830 C   0  0  0  0  0  0  0  0  0  0  0  0
    7.4840   -5.9670   28.3570 C   0  0  0  0  0  0  0  0  0  0  0  0
    6.8440   -2.8730   23.3660 C   0  0  0  0  0  0  0  0  0  0  0  0
    7.6050   -3.2770   22.2940 C   0  0  0  0  0  0  0  0  0  0  0  0
  1  2  1  0
  2  3  2  0
  2  4  1  0
  4  5  1  0
  5  6  1  0
  6  7  1  0
  7  8  1  0
  8  9  2  0
  8 10  1  0
 11 10  1  6
 11 12  1  0
 12 13  2  0
 12 14  1  0
 14 15  1  0
 15 16  1  0
 16 17  2  3
 17 18  1  0
 17 19  1  0
 11 20  1  0
 20 21  1  0
 20 22  1  0
  7 23  1  0
  4 24  1  0
 23 24  1  0
M  END
