piperidine-amides-1848-covalent
     RDKit          3D

 19 20  0  0  0  0  0  0  0  0999 V2000
    7.1220   -3.2550   19.1860 C   0  0  0  0  0  0  0  0  0  0  0  0
    6.3490   -4.0180   20.1990 C   0  0  0  0  0  0  0  0  0  0  0  0
    5.2700   -4.4930   19.8540 O   0  0  0  0  0  0  0  0  0  0  0  0
    6.8800   -4.2140   21.4680 N   0  0  0  0  0  0  0  0  0  0  0  0
    7.6220   -3.1610   22.1180 C   0  0  0  0  0  0  0  0  0  0  0  0
    6.8230   -2.6610   23.2820 C   0  0  0  0  0  0  0  0  0  0  0  0
    6.5380   -3.8480   24.1940 C   0  0  0  0  0  0  0  0  0  0  0  0
    5.8290   -3.3830   25.3980 C   0  0  0  0  0  0  0  0  0  0  0  0
    4.5980   -3.2270   25.3610 O   0  0  0  0  0  0  0  0  0  0  0  0
    6.5400   -3.1140   26.5740 N   0  0  0  0  0  0  0  0  0  0  0  0
    5.9530   -3.4790   27.8390 C   0  0  1  0  0  0  0  0  0  0  0  0
    6.6600   -4.6860   28.4290 C   0  0  0  0  0  0  0  0  0  0  0  0
    6.0530   -2.3560   28.8130 C   0  0  0  0  0  0  0  0  0  0  0  0
    4.9290   -2.3530   29.4830 C   0  0  0  0  0  0  0  0  0  0  0  0
    5.0440   -1.3010   30.3850 O   0  0  0  0  0  0  0  0  0  0  0  0
    6.3120   -0.6800   30.2050 C   0  0  0  0  0  0  0  0  0  0  0  0
    6.9130   -1.3530   29.2230 N   0  0  0  0  0  0  0  0  0  0  0  0
    5.7100   -4.8920   23.4740 C   0  0  0  0  0  0  0  0  0  0  0  0
    6.4280   -5.3180   22.2380 C   0  0  0  0  0  0  0  0  0  0  0  0
  1  2  1  0
  2  3  2  0
  2  4  1  0
  4  5  1  0
  5  6  1  0
  6  7  1  0
  7  8  1  0
  8  9  2  0
  8 10  1  0
 10 11  1  0
 11 12  1  1
 11 13  1  0
 13 14  2  0
 14 15  1  0
 15 16  1  0
 13 17  1  0
 16 17  2  0
  7 18  1  0
  4 19  1  0
 18 19  1  0
M  END
