piperidine-amides-4036-covalent
     RDKit          3D

 28 30  0  0  0  0  0  0  0  0999 V2000
    7.0790   -3.3150   19.2520 C   0  0  0  0  0  0  0  0  0  0  0  0
    6.3950   -4.0980   20.2960 C   0  0  0  0  0  0  0  0  0  0  0  0
    5.3460   -4.6890   19.9440 O   0  0  0  0  0  0  0  0  0  0  0  0
    6.9240   -4.2220   21.6120 N   0  0  0  0  0  0  0  0  0  0  0  0
    6.4940   -5.3240   22.4000 C   0  0  0  0  0  0  0  0  0  0  0  0
    6.0670   -4.9440   23.7510 C   0  0  0  0  0  0  0  0  0  0  0  0
    6.1320   -3.4930   24.0400 C   0  0  0  0  0  0  0  0  0  0  0  0
    5.6350   -3.1290   25.4220 C   0  0  0  0  0  0  0  0  0  0  0  0
    4.4600   -2.7360   25.5330 O   0  0  0  0  0  0  0  0  0  0  0  0
    6.4400   -3.2050   26.5850 N   0  0  0  0  0  0  0  0  0  0  0  0
    6.1570   -3.7620   27.8750 C   0  0  1  0  0  0  0  0  0  0  0  0
    5.5710   -2.9100   28.8970 C   0  0  0  0  0  0  0  0  0  0  0  0
    6.5270   -1.8080   29.2580 C   0  0  0  0  0  0  0  0  0  0  0  0
    6.2640   -0.8540   30.1880 C   0  0  0  0  0  0  0  0  0  0  0  0
    4.9100   -0.8800   30.9310 C   0  0  0  0  0  0  0  0  0  0  0  0
    4.5390    0.3380   32.1410 Cl  0  0  0  0  0  0  0  0  0  0  0  0
    3.9460   -2.0030   30.5550 C   0  0  0  0  0  0  0  0  0  0  0  0
    4.2600   -3.0890   29.4890 C   0  0  0  0  0  0  0  0  0  0  0  0
    5.3710   -5.0130   27.6690 C   0  0  0  0  0  0  0  0  0  0  0  0
    4.7530   -5.2420   26.3070 C   0  0  0  0  0  0  0  0  0  0  0  0
    3.9390   -6.5090   26.0670 C   0  0  0  0  0  0  0  0  0  0  0  0
    3.8900   -7.3500   27.2840 C   0  0  0  0  0  0  0  0  0  0  0  0
    4.4810   -7.0980   28.5230 C   0  0  0  0  0  0  0  0  0  0  0  0
    5.2140   -5.9390   28.7070 C   0  0  0  0  0  0  0  0  0  0  0  0
    5.7830   -5.7300   29.9500 O   0  0  0  0  0  0  0  0  0  0  0  0
    5.5350   -6.7950   30.8260 C   0  0  0  0  0  0  0  0  0  0  0  0
    7.4890   -2.9690   23.6920 C   0  0  0  0  0  0  0  0  0  0  0  0
    7.6550   -3.1230   22.1850 C   0  0  0  0  0  0  0  0  0  0  0  0
  1  2  1  0
  2  3  2  0
  2  4  1  0
  4  5  1  0
  5  6  1  0
  6  7  1  0
  7  8  1  0
  8  9  2  0
  8 10  1  0
 11 10  1  6
 11 12  1  0
 12 13  2  0
 13 14  1  0
 14 15  2  0
 15 16  1  0
 15 17  1  0
 12 18  1  0
 17 18  2  0
 11 19  1  0
 19 20  2  0
 20 21  1  0
 21 22  2  0
 22 23  1  0
 19 24  1  0
 23 24  2  0
 24 25  1  0
 25 26  1  0
  7 27  1  0
  4 28  1  0
 27 28  1  0
M  END
