piperidine-amides-3110-covalent
     RDKit          3D

 23 24  0  0  0  0  0  0  0  0999 V2000
    7.0840   -3.2810   19.1760 C   0  0  0  0  0  0  0  0  0  0  0  0
    6.3250   -4.0030   20.2000 C   0  0  0  0  0  0  0  0  0  0  0  0
    5.2960   -4.6020   19.8990 O   0  0  0  0  0  0  0  0  0  0  0  0
    6.7960   -4.0570   21.5510 N   0  0  0  0  0  0  0  0  0  0  0  0
    7.7290   -3.0640   22.0180 C   0  0  0  0  0  0  0  0  0  0  0  0
    7.6550   -2.9450   23.5000 C   0  0  0  0  0  0  0  0  0  0  0  0
    6.2920   -3.4540   23.9120 C   0  0  0  0  0  0  0  0  0  0  0  0
    6.1210   -3.1850   25.3580 C   0  0  0  0  0  0  0  0  0  0  0  0
    5.0000   -3.1470   25.9070 O   0  0  0  0  0  0  0  0  0  0  0  0
    7.3120   -2.9440   26.0950 N   0  0  0  0  0  0  0  0  0  0  0  0
    7.2980   -3.0790   27.5280 C   0  0  0  0  0  0  0  0  0  0  0  0
    7.4940   -4.5240   27.8620 C   0  0  0  0  0  0  0  0  0  0  0  0
    6.5170   -5.2810   28.3880 N   0  0  0  0  0  0  0  0  0  0  0  0
    6.6970   -6.4740   28.8310 C   0  0  0  0  0  0  0  0  0  0  0  0
    5.6200   -7.0680   29.3120 C   0  0  0  0  0  0  0  0  0  0  0  0
    4.5790   -6.1920   29.1890 C   0  0  0  0  0  0  0  0  0  0  0  0
    3.1620   -6.2480   29.5240 C   0  0  0  0  0  0  0  0  0  0  0  0
    2.4160   -6.3920   28.3890 F   0  0  0  0  0  0  0  0  0  0  0  0
    2.9110   -7.2110   30.4810 F   0  0  0  0  0  0  0  0  0  0  0  0
    2.8300   -5.0150   30.0700 F   0  0  0  0  0  0  0  0  0  0  0  0
    5.1950   -4.9570   28.5530 N   0  0  0  0  0  0  0  0  0  0  0  0
    6.0270   -4.9050   23.5870 C   0  0  0  0  0  0  0  0  0  0  0  0
    6.6230   -5.2530   22.3850 C   0  0  0  0  0  0  0  0  0  0  0  0
  1  2  1  0
  2  3  2  0
  2  4  1  0
  4  5  1  0
  5  6  1  0
  6  7  1  0
  7  8  1  0
  8  9  2  0
  8 10  1  0
 10 11  1  0
 11 12  1  0
 12 13  1  0
 13 14  1  0
 14 15  2  0
 15 16  1  0
 16 17  1  0
 17 18  1  0
 17 19  1  0
 17 20  1  0
 13 21  1  0
 16 21  2  0
  7 22  1  0
  4 23  1  0
 22 23  1  0
M  END
