piperidine-amides-11281-covalent
     RDKit          3D

 18 19  0  0  0  0  0  0  0  0999 V2000
    7.0950   -3.3550   19.3280 C   0  0  0  0  0  0  0  0  0  0  0  0
    6.3690   -4.1350   20.3270 C   0  0  0  0  0  0  0  0  0  0  0  0
    5.3670   -4.7800   19.9740 O   0  0  0  0  0  0  0  0  0  0  0  0
    6.8330   -4.2030   21.6560 N   0  0  0  0  0  0  0  0  0  0  0  0
    7.7330   -3.1860   22.1660 C   0  0  0  0  0  0  0  0  0  0  0  0
    7.4270   -3.0600   23.6300 C   0  0  0  0  0  0  0  0  0  0  0  0
    6.0920   -3.6550   23.9390 C   0  0  0  0  0  0  0  0  0  0  0  0
    5.6240   -3.3970   25.3210 C   0  0  0  0  0  0  0  0  0  0  0  0
    4.3880   -3.4630   25.6130 O   0  0  0  0  0  0  0  0  0  0  0  0
    6.5070   -3.0430   26.3560 N   0  0  0  0  0  0  0  0  0  0  0  0
    6.1000   -2.0590   27.3770 C   0  0  0  0  0  0  0  0  0  0  0  0
    4.9450   -2.4530   28.2100 C   0  0  0  0  0  0  0  0  0  0  0  0
    4.7600   -1.8210   29.2840 O   0  0  0  0  0  0  0  0  0  0  0  0
    3.5660   -1.9540   29.8950 C   0  0  0  0  0  0  0  0  0  0  0  0
    6.0970   -0.6050   26.9490 C   0  0  0  0  0  0  0  0  0  0  0  0
    6.9020   -1.0000   28.0540 C   0  0  0  0  0  0  0  0  0  0  0  0
    6.1290   -5.1220   23.6700 C   0  0  0  0  0  0  0  0  0  0  0  0
    6.5290   -5.3970   22.3850 C   0  0  0  0  0  0  0  0  0  0  0  0
  1  2  1  0
  2  3  2  0
  2  4  1  0
  4  5  1  0
  5  6  1  0
  6  7  1  0
  7  8  1  0
  8  9  2  0
  8 10  1  0
 11 10  1  0
 11 12  1  0
 12 13  1  0
 13 14  1  0
 11 15  1  0
 11 16  1  0
 15 16  1  0
  7 17  1  0
  4 18  1  0
 17 18  1  0
M  END
