piperidine-amides-27595-covalent
     RDKit          3D

 26 28  0  0  0  0  0  0  0  0999 V2000
    7.0770   -3.3260   19.2610 C   0  0  0  0  0  0  0  0  0  0  0  0
    6.3960   -4.1310   20.2820 C   0  0  0  0  0  0  0  0  0  0  0  0
    5.3300   -4.6980   19.9340 O   0  0  0  0  0  0  0  0  0  0  0  0
    6.9530   -4.2850   21.5500 N   0  0  0  0  0  0  0  0  0  0  0  0
    6.6170   -5.4170   22.3830 C   0  0  0  0  0  0  0  0  0  0  0  0
    5.8660   -4.9020   23.5830 C   0  0  0  0  0  0  0  0  0  0  0  0
    6.5910   -3.7690   24.2670 C   0  0  0  0  0  0  0  0  0  0  0  0
    5.7520   -3.2210   25.3550 C   0  0  0  0  0  0  0  0  0  0  0  0
    4.5970   -2.8460   25.0530 O   0  0  0  0  0  0  0  0  0  0  0  0
    6.1770   -3.0990   26.6940 N   0  0  0  0  0  0  0  0  0  0  0  0
    6.0880   -4.2300   27.5970 C   0  0  0  0  0  0  0  0  0  0  0  0
    4.7440   -4.3300   28.3200 C   0  0  1  0  0  0  0  0  0  0  0  0
    4.0030   -3.1990   28.6660 C   0  0  0  0  0  0  0  0  0  0  0  0
    2.6580   -3.3320   28.3670 C   0  0  0  0  0  0  0  0  0  0  0  0
    2.5820   -4.5600   27.7640 C   0  0  0  0  0  0  0  0  0  0  0  0
    3.8570   -5.0370   27.7620 O   0  0  0  0  0  0  0  0  0  0  0  0
    6.3230   -1.7900   27.2610 C   0  0  0  0  0  0  0  0  0  0  0  0
    6.9120   -1.5780   28.5000 C   0  0  0  0  0  0  0  0  0  0  0  0
    7.2580   -0.4090   29.4700 C   0  0  0  0  0  0  0  0  0  0  0  0
    6.7190    0.6790   28.6270 N   0  0  0  0  0  0  0  0  0  0  0  0
    6.0890    0.7370   27.3620 C   0  0  0  0  0  0  0  0  0  0  0  0
    5.6360    2.0400   26.7380 C   0  0  0  0  0  0  0  0  0  0  0  0
    4.5030    2.6450   27.1280 N   0  0  0  0  0  0  0  0  0  0  0  0
    5.8660   -0.5640   26.6090 C   0  0  0  0  0  0  0  0  0  0  0  0
    6.9900   -2.6790   23.3520 C   0  0  0  0  0  0  0  0  0  0  0  0
    7.6840   -3.1900   22.1220 C   0  0  0  0  0  0  0  0  0  0  0  0
  1  2  1  0
  2  3  2  0
  2  4  1  0
  4  5  1  0
  5  6  1  0
  6  7  1  0
  7  8  1  0
  8  9  2  0
  8 10  1  0
 10 11  1  0
 12 11  1  6
 12 13  1  0
 13 14  1  0
 14 15  1  0
 12 16  1  0
 15 16  1  0
 10 17  1  0
 17 18  2  0
 18 19  1  0
 19 20  2  0
 20 21  1  0
 21 22  1  0
 22 23  3  0
 17 24  1  0
 21 24  2  0
  7 25  1  0
  4 26  1  0
 25 26  1  0
M  END
