piperidine-amides-33597-covalent
     RDKit          3D

 27 29  0  0  0  0  0  0  0  0999 V2000
    7.0170   -3.3680   19.4150 C   0  0  0  0  0  0  0  0  0  0  0  0
    6.3790   -4.2440   20.4200 C   0  0  0  0  0  0  0  0  0  0  0  0
    5.4160   -4.9360   20.0040 O   0  0  0  0  0  0  0  0  0  0  0  0
    6.8380   -4.3390   21.7720 N   0  0  0  0  0  0  0  0  0  0  0  0
    7.6690   -3.3000   22.2930 C   0  0  0  0  0  0  0  0  0  0  0  0
    7.3450   -3.0100   23.6680 C   0  0  0  0  0  0  0  0  0  0  0  0
    6.1310   -3.7390   24.0440 C   0  0  0  0  0  0  0  0  0  0  0  0
    5.5080   -3.2330   25.3380 C   0  0  0  0  0  0  0  0  0  0  0  0
    4.8840   -2.1660   25.2660 O   0  0  0  0  0  0  0  0  0  0  0  0
    5.5250   -3.8430   26.6170 N   0  0  0  0  0  0  0  0  0  0  0  0
    4.3790   -4.1950   27.3190 C   0  0  0  0  0  0  0  0  0  0  0  0
    4.5470   -4.2970   28.7530 C   0  0  0  0  0  0  0  0  0  0  0  0
    5.6060   -4.8920   29.2940 N   0  0  0  0  0  0  0  0  0  0  0  0
    5.6320   -6.2920   29.6360 C   0  0  0  0  0  0  0  0  0  0  0  0
    6.8140   -6.9260   29.3990 O   0  0  0  0  0  0  0  0  0  0  0  0
    4.5250   -6.9590   30.1250 C   0  0  0  0  0  0  0  0  0  0  0  0
    3.8060   -7.0270   28.7600 C   0  0  0  0  0  0  0  0  0  0  0  0
    2.4530   -7.7260   28.8450 C   0  0  0  0  0  0  0  0  0  0  0  0
    2.1240   -8.2040   30.2780 C   0  0  0  0  0  0  0  0  0  0  0  0
    2.8780   -8.1030   31.5640 C   0  0  0  0  0  0  0  0  0  0  0  0
    2.2870   -8.7320   33.0860 Cl  0  0  0  0  0  0  0  0  0  0  0  0
    4.1740   -7.4060   31.3600 C   0  0  0  0  0  0  0  0  0  0  0  0
    5.2280   -7.1790   32.7360 Cl  0  0  0  0  0  0  0  0  0  0  0  0
    6.6940   -4.5530   28.4500 C   0  0  0  0  0  0  0  0  0  0  0  0
    6.4430   -3.3470   27.5700 C   0  0  0  0  0  0  0  0  0  0  0  0
    6.2620   -5.2260   23.8960 C   0  0  0  0  0  0  0  0  0  0  0  0
    6.5840   -5.5390   22.5530 C   0  0  0  0  0  0  0  0  0  0  0  0
  1  2  1  0
  2  3  2  0
  2  4  1  0
  4  5  1  0
  5  6  1  0
  6  7  1  0
  7  8  1  0
  8  9  2  0
  8 10  1  0
 10 11  1  0
 11 12  1  0
 12 13  1  0
 13 14  1  0
 14 15  2  0
 14 16  1  0
 16 17  2  0
 17 18  1  0
 18 19  2  0
 19 20  1  0
 20 21  1  0
 16 22  1  0
 20 22  2  0
 22 23  1  0
 13 24  1  0
 10 25  1  0
 24 25  1  0
  7 26  1  0
  4 27  1  0
 26 27  1  0
M  END
