piperidine-amides-35223-covalent
     RDKit          3D

 29 31  0  0  0  0  0  0  0  0999 V2000
    7.0770   -3.2730   19.2150 C   0  0  0  0  0  0  0  0  0  0  0  0
    6.3510   -4.0500   20.2500 C   0  0  0  0  0  0  0  0  0  0  0  0
    5.3090   -4.6040   19.9060 O   0  0  0  0  0  0  0  0  0  0  0  0
    6.8800   -4.1680   21.5370 N   0  0  0  0  0  0  0  0  0  0  0  0
    7.5380   -3.0590   22.1650 C   0  0  0  0  0  0  0  0  0  0  0  0
    6.6640   -2.5840   23.2880 C   0  0  0  0  0  0  0  0  0  0  0  0
    6.4700   -3.7210   24.2890 C   0  0  0  0  0  0  0  0  0  0  0  0
    5.5870   -3.2330   25.3710 C   0  0  0  0  0  0  0  0  0  0  0  0
    4.4270   -2.9180   25.0880 O   0  0  0  0  0  0  0  0  0  0  0  0
    6.0260   -3.1080   26.7120 N   0  0  0  0  0  0  0  0  0  0  0  0
    6.5860   -1.8290   27.0950 C   0  0  0  0  0  0  0  0  0  0  0  0
    6.2520   -4.2890   27.4950 C   0  0  0  0  0  0  0  0  0  0  0  0
    5.1740   -4.8070   28.1420 C   0  0  0  0  0  0  0  0  0  0  0  0
    5.2420   -6.1480   28.3860 C   0  0  0  0  0  0  0  0  0  0  0  0
    4.2450   -6.8290   29.0320 C   0  0  0  0  0  0  0  0  0  0  0  0
    2.9700   -6.1920   29.5440 C   0  0  0  0  0  0  0  0  0  0  0  0
    3.0700   -4.7550   29.1910 C   0  0  0  0  0  0  0  0  0  0  0  0
    1.9280   -3.9330   29.5870 N   0  0  0  0  0  0  0  0  0  0  0  0
    0.7830   -4.8120   29.6050 C   0  0  0  0  0  0  0  0  0  0  0  0
    0.2020   -5.0900   30.8270 O   0  0  0  0  0  0  0  0  0  0  0  0
    0.1730   -5.4430   28.3920 C   0  0  0  0  0  0  0  0  0  0  0  0
    0.7060   -6.7650   28.0030 C   0  0  0  0  0  0  0  0  0  0  0  0
   -0.0620   -7.1620   26.7860 C   0  0  0  0  0  0  0  0  0  0  0  0
    0.1220   -8.7610   25.7670 Br  0  0  0  0  0  0  0  0  0  0  0  0
   -1.0040   -6.0270   26.5450 C   0  0  0  0  0  0  0  0  0  0  0  0
   -0.8140   -5.0700   27.5100 N   0  0  0  0  0  0  0  0  0  0  0  0
    4.0630   -4.0750   28.5480 C   0  0  0  0  0  0  0  0  0  0  0  0
    5.8150   -4.8950   23.5900 C   0  0  0  0  0  0  0  0  0  0  0  0
    6.4940   -5.3080   22.3060 C   0  0  0  0  0  0  0  0  0  0  0  0
  1  2  1  0
  2  3  2  0
  2  4  1  0
  4  5  1  0
  5  6  1  0
  6  7  1  0
  7  8  1  0
  8  9  2  0
  8 10  1  0
 10 11  1  0
 10 12  1  0
 12 13  1  0
 13 14  2  0
 14 15  1  0
 15 16  2  0
 16 17  1  0
 17 18  1  0
 18 19  1  0
 19 20  2  0
 19 21  1  0
 21 22  2  0
 22 23  1  0
 23 24  1  0
 23 25  2  0
 21 26  1  0
 25 26  1  0
 13 27  1  0
 17 27  2  0
  7 28  1  0
  4 29  1  0
 28 29  1  0
M  END
