piperidine-amides-2813-covalent
     RDKit          3D

 24 26  0  0  0  0  0  0  0  0999 V2000
    7.0440   -3.3210   19.2440 C   0  0  0  0  0  0  0  0  0  0  0  0
    6.3490   -4.0990   20.2660 C   0  0  0  0  0  0  0  0  0  0  0  0
    5.3440   -4.7400   19.9540 O   0  0  0  0  0  0  0  0  0  0  0  0
    6.8470   -4.1650   21.6150 N   0  0  0  0  0  0  0  0  0  0  0  0
    7.6530   -3.0870   22.1330 C   0  0  0  0  0  0  0  0  0  0  0  0
    6.9210   -2.3700   23.2310 C   0  0  0  0  0  0  0  0  0  0  0  0
    6.4330   -3.3800   24.2570 C   0  0  0  0  0  0  0  0  0  0  0  0
    5.7060   -2.6710   25.3680 C   0  0  0  0  0  0  0  0  0  0  0  0
    4.5200   -2.9290   25.6580 O   0  0  0  0  0  0  0  0  0  0  0  0
    6.4140   -1.6500   26.0920 N   0  0  0  0  0  0  0  0  0  0  0  0
    5.9250   -1.1300   27.3730 C   0  0  0  0  0  0  0  0  0  0  0  0
    6.6240   -1.8660   28.4790 C   0  0  0  0  0  0  0  0  0  0  0  0
    6.8860   -3.0660   28.0420 C   0  0  0  0  0  0  0  0  0  0  0  0
    6.3510   -4.2430   28.6430 C   0  0  0  0  0  0  0  0  0  0  0  0
    6.6330   -5.4810   28.1090 C   0  0  0  0  0  0  0  0  0  0  0  0
    7.4640   -5.4400   26.9540 C   0  0  0  0  0  0  0  0  0  0  0  0
    7.9220   -4.3180   26.4630 C   0  0  0  0  0  0  0  0  0  0  0  0
    7.6830   -3.1460   26.9510 C   0  0  0  0  0  0  0  0  0  0  0  0
    8.7140   -4.6620   25.3030 C   0  0  0  0  0  0  0  0  0  0  0  0
    8.6970   -6.0650   25.5910 C   0  0  1  0  0  0  0  0  0  0  0  0
    9.7600   -6.3510   26.3470 C   0  0  0  0  0  0  0  0  0  0  0  0
    7.7920   -6.4830   26.3500 O   0  0  0  0  0  0  0  0  0  0  0  0
    5.5310   -4.4150   23.6120 C   0  0  0  0  0  0  0  0  0  0  0  0
    6.2600   -5.1060   22.4960 C   0  0  0  0  0  0  0  0  0  0  0  0
  1  2  1  0
  2  3  2  0
  2  4  1  0
  4  5  1  0
  5  6  1  0
  6  7  1  0
  7  8  1  0
  8  9  2  0
  8 10  1  0
 10 11  1  0
 11 12  1  0
 12 13  1  0
 13 14  2  0
 14 15  1  0
 15 16  2  0
 16 17  1  0
 13 18  1  0
 17 18  2  0
 17 19  1  0
 19 20  1  0
 20 21  1  1
 16 22  1  0
 20 22  1  0
  7 23  1  0
  4 24  1  0
 23 24  1  0
M  END
