piperidine-amides-31115-covalent
     RDKit          3D

 23 25  0  0  0  0  0  0  0  0999 V2000
    7.0420   -3.3450   19.3380 C   0  0  0  0  0  0  0  0  0  0  0  0
    6.3620   -4.1790   20.3390 C   0  0  0  0  0  0  0  0  0  0  0  0
    5.3760   -4.8460   19.9810 O   0  0  0  0  0  0  0  0  0  0  0  0
    6.8190   -4.2850   21.6690 N   0  0  0  0  0  0  0  0  0  0  0  0
    6.7580   -5.5540   22.3720 C   0  0  0  0  0  0  0  0  0  0  0  0
    6.2560   -5.2680   23.7650 C   0  0  0  0  0  0  0  0  0  0  0  0
    6.1260   -3.8010   23.9930 C   0  0  0  0  0  0  0  0  0  0  0  0
    5.6080   -3.4050   25.3340 C   0  0  0  0  0  0  0  0  0  0  0  0
    4.5880   -2.6580   25.3900 O   0  0  0  0  0  0  0  0  0  0  0  0
    6.1350   -3.7860   26.5930 N   0  0  0  0  0  0  0  0  0  0  0  0
    6.0460   -2.7510   27.6620 C   0  0  0  0  0  0  0  0  0  0  0  0
    5.8100   -3.3990   28.9680 C   0  0  0  0  0  0  0  0  0  0  0  0
    4.8920   -4.5210   28.8980 C   0  0  0  0  0  0  0  0  0  0  0  0
    3.7620   -4.6430   29.8930 C   0  0  0  0  0  0  0  0  0  0  0  0
    2.8120   -5.8260   29.7920 C   0  0  0  0  0  0  0  0  0  0  0  0
    1.3360   -6.1060   30.9870 Br  0  0  0  0  0  0  0  0  0  0  0  0
    3.1740   -6.7170   28.6560 C   0  0  0  0  0  0  0  0  0  0  0  0
    4.2210   -6.5150   27.8000 C   0  0  0  0  0  0  0  0  0  0  0  0
    4.4950   -7.3540   26.7730 F   0  0  0  0  0  0  0  0  0  0  0  0
    5.0580   -5.4210   27.9450 C   0  0  0  0  0  0  0  0  0  0  0  0
    6.1920   -5.1220   27.0840 C   0  0  0  0  0  0  0  0  0  0  0  0
    7.3690   -3.0300   23.6660 C   0  0  0  0  0  0  0  0  0  0  0  0
    7.7040   -3.2530   22.2130 C   0  0  0  0  0  0  0  0  0  0  0  0
  1  2  1  0
  2  3  2  0
  2  4  1  0
  4  5  1  0
  5  6  1  0
  6  7  1  0
  7  8  1  0
  8  9  2  0
  8 10  1  0
 10 11  1  0
 11 12  1  0
 12 13  1  0
 13 14  2  0
 14 15  1  0
 15 16  1  0
 15 17  2  0
 17 18  1  0
 18 19  1  0
 13 20  1  0
 18 20  2  0
 10 21  1  0
 20 21  1  0
  7 22  1  0
  4 23  1  0
 22 23  1  0
M  END
