piperidine-amides-26977-covalent
     RDKit          3D

 24 25  0  0  0  0  0  0  0  0999 V2000
    7.1820   -3.2910   19.1780 C   0  0  0  0  0  0  0  0  0  0  0  0
    6.4080   -4.0120   20.1830 C   0  0  0  0  0  0  0  0  0  0  0  0
    5.2770   -4.4390   19.8440 O   0  0  0  0  0  0  0  0  0  0  0  0
    6.9790   -4.2560   21.4280 N   0  0  0  0  0  0  0  0  0  0  0  0
    7.7750   -3.2610   22.1020 C   0  0  0  0  0  0  0  0  0  0  0  0
    6.9900   -2.7940   23.2750 C   0  0  0  0  0  0  0  0  0  0  0  0
    6.4030   -3.9530   24.0370 C   0  0  0  0  0  0  0  0  0  0  0  0
    5.6200   -3.4300   25.1520 C   0  0  0  0  0  0  0  0  0  0  0  0
    4.3820   -3.3170   25.0220 O   0  0  0  0  0  0  0  0  0  0  0  0
    6.2010   -3.0710   26.3550 N   0  0  0  0  0  0  0  0  0  0  0  0
    6.0390   -4.0370   27.4070 C   0  0  0  0  0  0  0  0  0  0  0  0
    6.6450   -3.6360   28.7180 C   0  0  0  0  0  0  0  0  0  0  0  0
    6.8500   -2.1790   28.7310 N   0  0  0  0  0  0  0  0  0  0  0  0
    6.6860   -1.4550   29.8170 C   0  0  0  0  0  0  0  0  0  0  0  0
    7.6920   -0.6970   30.3650 C   0  0  0  0  0  0  0  0  0  0  0  0
    5.5170   -1.3110   30.6150 O   0  0  0  0  0  0  0  0  0  0  0  0
    6.6080   -1.6830   26.4780 C   0  0  0  0  0  0  0  0  0  0  0  0
    5.6730   -0.7690   25.9970 C   0  0  0  0  0  0  0  0  0  0  0  0
    4.9100   -0.8460   24.8430 C   0  0  0  0  0  0  0  0  0  0  0  0
    3.9790    0.2990   24.5790 C   0  0  0  0  0  0  0  0  0  0  0  0
    4.0990    1.4840   25.8370 S   0  0  0  0  0  0  0  0  0  0  0  0
    5.3470    0.5230   26.7220 C   0  0  0  0  0  0  0  0  0  0  0  0
    5.5440   -4.8840   23.1730 C   0  0  0  0  0  0  0  0  0  0  0  0
    6.5520   -5.4170   22.1840 C   0  0  0  0  0  0  0  0  0  0  0  0
  1  2  1  0
  2  3  2  0
  2  4  1  0
  4  5  1  0
  5  6  1  0
  6  7  1  0
  7  8  1  0
  8  9  2  0
  8 10  1  0
 10 11  1  0
 11 12  1  0
 12 13  1  0
 13 14  1  0
 14 15  1  0
 14 16  2  0
 10 17  1  0
 17 18  1  0
 18 19  1  0
 19 20  2  0
 20 21  1  0
 18 22  2  0
 21 22  1  0
  7 23  1  0
  4 24  1  0
 23 24  1  0
M  END
