piperidine-amides-31047-covalent
     RDKit          3D

 28 31  0  0  0  0  0  0  0  0999 V2000
    7.0660   -3.3860   19.4290 C   0  0  0  0  0  0  0  0  0  0  0  0
    6.3700   -4.2340   20.4000 C   0  0  0  0  0  0  0  0  0  0  0  0
    5.4080   -4.9140   20.0020 O   0  0  0  0  0  0  0  0  0  0  0  0
    6.7970   -4.3260   21.7440 N   0  0  0  0  0  0  0  0  0  0  0  0
    6.6800   -5.5690   22.4900 C   0  0  0  0  0  0  0  0  0  0  0  0
    6.1250   -5.2230   23.8620 C   0  0  0  0  0  0  0  0  0  0  0  0
    6.1380   -3.7480   24.0920 C   0  0  0  0  0  0  0  0  0  0  0  0
    5.5260   -3.2640   25.3800 C   0  0  0  0  0  0  0  0  0  0  0  0
    4.8150   -2.2270   25.3360 O   0  0  0  0  0  0  0  0  0  0  0  0
    5.6190   -3.8410   26.6780 N   0  0  0  0  0  0  0  0  0  0  0  0
    4.3540   -4.1990   27.3490 C   0  0  0  0  0  0  0  0  0  0  0  0
    4.5330   -4.2220   28.8360 C   0  0  0  0  0  0  0  0  0  0  0  0
    5.6390   -4.9130   29.1050 N   0  0  0  0  0  0  0  0  0  0  0  0
    5.6260   -6.1610   29.7740 C   0  0  0  0  0  0  0  0  0  0  0  0
    6.5720   -6.9530   29.7550 O   0  0  0  0  0  0  0  0  0  0  0  0
    4.3240   -6.4310   30.4880 C   0  0  0  0  0  0  0  0  0  0  0  0
    4.3330   -7.5140   31.4440 C   0  0  0  0  0  0  0  0  0  0  0  0
    2.9320   -7.4140   31.8430 C   0  0  0  0  0  0  0  0  0  0  0  0
    2.4900   -8.3170   32.7900 C   0  0  0  0  0  0  0  0  0  0  0  0
    1.2230   -8.3570   33.2680 C   0  0  0  0  0  0  0  0  0  0  0  0
    0.2560   -7.3940   32.7630 C   0  0  0  0  0  0  0  0  0  0  0  0
    0.7810   -6.4170   31.7230 C   0  0  0  0  0  0  0  0  0  0  0  0
    2.1760   -6.2370   31.0750 C   0  0  0  0  0  0  0  0  0  0  0  0
    3.0700   -5.8150   30.3900 N   0  0  0  0  0  0  0  0  0  0  0  0
    6.7850   -4.7070   28.4060 C   0  0  0  0  0  0  0  0  0  0  0  0
    6.4770   -3.4410   27.6890 C   0  0  0  0  0  0  0  0  0  0  0  0
    7.4790   -3.1460   23.7500 C   0  0  0  0  0  0  0  0  0  0  0  0
    7.6540   -3.2710   22.2350 C   0  0  0  0  0  0  0  0  0  0  0  0
  1  2  1  0
  2  3  2  0
  2  4  1  0
  4  5  1  0
  5  6  1  0
  6  7  1  0
  7  8  1  0
  8  9  2  0
  8 10  1  0
 10 11  1  0
 11 12  1  0
 12 13  1  0
 13 14  1  0
 14 15  2  0
 14 16  1  0
 16 17  2  0
 17 18  1  0
 18 19  2  0
 19 20  1  0
 20 21  2  0
 21 22  1  0
 18 23  1  0
 22 23  2  0
 16 24  1  0
 23 24  1  0
 13 25  1  0
 10 26  1  0
 25 26  1  0
  7 27  1  0
  4 28  1  0
 27 28  1  0
M  END
