piperidine-amides-30213-covalent
     RDKit          3D

 27 28  0  0  0  0  0  0  0  0999 V2000
    7.0360   -3.3380   19.3080 C   0  0  0  0  0  0  0  0  0  0  0  0
    6.3410   -4.1510   20.2990 C   0  0  0  0  0  0  0  0  0  0  0  0
    5.3480   -4.7950   19.9660 O   0  0  0  0  0  0  0  0  0  0  0  0
    6.8220   -4.2530   21.6470 N   0  0  0  0  0  0  0  0  0  0  0  0
    7.7130   -3.2440   22.1870 C   0  0  0  0  0  0  0  0  0  0  0  0
    7.5060   -3.0970   23.6630 C   0  0  0  0  0  0  0  0  0  0  0  0
    6.1280   -3.6460   23.9640 C   0  0  0  0  0  0  0  0  0  0  0  0
    5.7240   -3.3600   25.3650 C   0  0  0  0  0  0  0  0  0  0  0  0
    4.5280   -3.3610   25.7150 O   0  0  0  0  0  0  0  0  0  0  0  0
    6.7210   -3.0780   26.3330 N   0  0  0  0  0  0  0  0  0  0  0  0
    6.6120   -1.7840   27.0350 C   0  0  0  0  0  0  0  0  0  0  0  0
    7.2370   -1.7650   28.4160 C   0  0  0  0  0  0  0  0  0  0  0  0
    7.1750   -0.6030   29.1570 C   0  0  0  0  0  0  0  0  0  0  0  0
    7.7410   -0.4980   30.4860 N   0  0  0  0  0  0  0  0  0  0  0  0
    6.8100   -0.0640   31.4840 C   0  0  0  0  0  0  0  0  0  0  0  0
    7.3740    0.4230   32.6450 C   0  0  0  0  0  0  0  0  0  0  0  0
    5.4430   -0.1830   31.1900 O   0  0  0  0  0  0  0  0  0  0  0  0
    6.5290    0.6760   28.7020 C   0  0  0  0  0  0  0  0  0  0  0  0
    6.0050    0.5290   27.4360 C   0  0  0  0  0  0  0  0  0  0  0  0
    6.0180   -0.5930   26.6170 C   0  0  0  0  0  0  0  0  0  0  0  0
    5.4830   -0.5430   25.4730 O   0  0  0  0  0  0  0  0  0  0  0  0
    4.1490   -0.8690   25.5370 C   0  0  0  0  0  0  0  0  0  0  0  0
    7.6010   -4.0940   26.9120 C   0  0  0  0  0  0  0  0  0  0  0  0
    6.9810   -5.3280   27.0550 C   0  0  0  0  0  0  0  0  0  0  0  0
    8.0250   -3.8460   28.3040 C   0  0  0  0  0  0  0  0  0  0  0  0
    6.0820   -5.1420   23.7470 C   0  0  0  0  0  0  0  0  0  0  0  0
    6.6680   -5.4890   22.3710 C   0  0  0  0  0  0  0  0  0  0  0  0
  1  2  1  0
  2  3  2  0
  2  4  1  0
  4  5  1  0
  5  6  1  0
  6  7  1  0
  7  8  1  0
  8  9  2  0
  8 10  1  0
 10 11  1  0
 11 12  2  0
 12 13  1  0
 13 14  1  0
 14 15  1  0
 15 16  1  0
 15 17  2  0
 13 18  2  0
 18 19  1  0
 11 20  1  0
 19 20  2  0
 20 21  1  0
 21 22  1  0
 10 23  1  0
 23 24  1  0
 23 25  1  0
  7 26  1  0
  4 27  1  0
 26 27  1  0
M  END
