piperidine-amides-35264-covalent
     RDKit          3D

 26 28  0  0  0  0  0  0  0  0999 V2000
    7.0200   -3.3510   19.4010 C   0  0  0  0  0  0  0  0  0  0  0  0
    6.3770   -4.2470   20.4000 C   0  0  0  0  0  0  0  0  0  0  0  0
    5.4180   -4.9070   19.9980 O   0  0  0  0  0  0  0  0  0  0  0  0
    6.8670   -4.3540   21.7160 N   0  0  0  0  0  0  0  0  0  0  0  0
    6.5380   -5.4760   22.5490 C   0  0  0  0  0  0  0  0  0  0  0  0
    5.6490   -5.0220   23.6850 C   0  0  0  0  0  0  0  0  0  0  0  0
    6.2060   -3.7530   24.3620 C   0  0  0  0  0  0  0  0  0  0  0  0
    5.1860   -3.2450   25.3480 C   0  0  0  0  0  0  0  0  0  0  0  0
    4.3490   -2.4270   24.9680 O   0  0  0  0  0  0  0  0  0  0  0  0
    5.1620   -3.6830   26.7120 N   0  0  0  0  0  0  0  0  0  0  0  0
    4.8750   -2.7610   27.7830 C   0  0  0  0  0  0  0  0  0  0  0  0
    4.4490   -3.5580   29.0200 C   0  0  0  0  0  0  0  0  0  0  0  0
    5.4620   -4.5700   29.3330 N   0  0  0  0  0  0  0  0  0  0  0  0
    4.6520   -5.9010   30.0500 S   0  0  0  0  0  0  0  0  0  0  0  0
    3.7340   -5.3160   31.0730 O   0  0  0  0  0  0  0  0  0  0  0  0
    5.6620   -6.7580   30.7590 O   0  0  0  0  0  0  0  0  0  0  0  0
    3.7440   -6.7620   28.7040 C   0  0  0  0  0  0  0  0  0  0  0  0
    2.5770   -7.3370   29.0980 C   0  0  0  0  0  0  0  0  0  0  0  0
    1.9430   -7.9450   28.0730 C   0  0  0  0  0  0  0  0  0  0  0  0
    2.4500   -7.9930   26.6690 C   0  0  0  0  0  0  0  0  0  0  0  0
    1.6270   -8.8190   25.1630 Br  0  0  0  0  0  0  0  0  0  0  0  0
    3.9930   -7.0310   27.0230 S   0  0  0  0  0  0  0  0  0  0  0  0
    6.4590   -4.5970   28.4620 C   0  0  0  0  0  0  0  0  0  0  0  0
    6.3190   -4.3460   27.0040 C   0  0  0  0  0  0  0  0  0  0  0  0
    6.7160   -2.7110   23.4330 C   0  0  0  0  0  0  0  0  0  0  0  0
    7.5720   -3.2600   22.3360 C   0  0  0  0  0  0  0  0  0  0  0  0
  1  2  1  0
  2  3  2  0
  2  4  1  0
  4  5  1  0
  5  6  1  0
  6  7  1  0
  7  8  1  0
  8  9  2  0
  8 10  1  0
 10 11  1  0
 11 12  1  0
 12 13  1  0
 13 14  1  0
 14 15  2  0
 14 16  2  0
 14 17  1  0
 17 18  2  0
 18 19  1  0
 19 20  2  0
 20 21  1  0
 17 22  1  0
 20 22  1  0
 13 23  1  0
 10 24  1  0
 23 24  1  0
  7 25  1  0
  4 26  1  0
 25 26  1  0
M  END
