piperidine-amides-9869-covalent
     RDKit          3D

 27 29  0  0  0  0  0  0  0  0999 V2000
    7.0470   -3.2720   19.2660 C   0  0  0  0  0  0  0  0  0  0  0  0
    6.3530   -4.0800   20.2750 C   0  0  0  0  0  0  0  0  0  0  0  0
    5.2730   -4.6020   19.9010 O   0  0  0  0  0  0  0  0  0  0  0  0
    6.8940   -4.3030   21.5500 N   0  0  0  0  0  0  0  0  0  0  0  0
    7.6350   -3.2880   22.2620 C   0  0  0  0  0  0  0  0  0  0  0  0
    7.0200   -3.0830   23.6330 C   0  0  0  0  0  0  0  0  0  0  0  0
    6.6200   -4.3610   24.3680 C   0  0  0  0  0  0  0  0  0  0  0  0
    5.7520   -4.0040   25.5160 C   0  0  0  0  0  0  0  0  0  0  0  0
    4.6850   -3.3970   25.2500 O   0  0  0  0  0  0  0  0  0  0  0  0
    6.0320   -4.2660   26.8820 N   0  0  0  0  0  0  0  0  0  0  0  0
    6.2030   -5.5660   27.5260 C   0  0  0  0  0  0  0  0  0  0  0  0
    5.3250   -5.5790   28.7910 C   0  0  0  0  0  0  0  0  0  0  0  0
    4.4380   -4.5250   28.9650 C   0  0  0  0  0  0  0  0  0  0  0  0
    3.5840   -4.3890   30.0350 C   0  0  0  0  0  0  0  0  0  0  0  0
    3.5940   -5.3530   31.0050 C   0  0  0  0  0  0  0  0  0  0  0  0
    4.4500   -6.4120   30.8830 C   0  0  0  0  0  0  0  0  0  0  0  0
    5.3120   -6.5590   29.8200 C   0  0  0  0  0  0  0  0  0  0  0  0
    6.1090   -7.7200   29.9000 O   0  0  0  0  0  0  0  0  0  0  0  0
    6.4400   -8.7330   30.7370 C   0  0  0  0  0  0  0  0  0  0  0  0
    5.9030   -8.6970   32.1850 C   0  0  0  0  0  0  0  0  0  0  0  0
    6.2470   -9.8090   33.1530 C   0  0  0  0  0  0  0  0  0  0  0  0
    7.1110  -11.0090   32.8210 C   0  0  0  0  0  0  0  0  0  0  0  0
    7.5100  -12.0880   33.5710 C   0  0  0  0  0  0  0  0  0  0  0  0
    7.6230  -10.9870   31.3720 C   0  0  0  0  0  0  0  0  0  0  0  0
    7.2520   -9.8440   30.4150 C   0  0  0  0  0  0  0  0  0  0  0  0
    5.9280   -5.3370   23.4780 C   0  0  0  0  0  0  0  0  0  0  0  0
    6.6080   -5.5420   22.1890 C   0  0  0  0  0  0  0  0  0  0  0  0
  1  2  1  0
  2  3  2  0
  2  4  1  0
  4  5  1  0
  5  6  1  0
  6  7  1  0
  7  8  1  0
  8  9  2  0
  8 10  1  0
 10 11  1  0
 11 12  1  0
 12 13  2  0
 13 14  1  0
 14 15  2  0
 15 16  1  0
 12 17  1  0
 16 17  2  0
 17 18  1  0
 18 19  1  0
 19 20  2  0
 20 21  1  0
 21 22  2  0
 22 23  1  0
 22 24  1  0
 19 25  1  0
 24 25  2  0
  7 26  1  0
  4 27  1  0
 26 27  1  0
M  END
