piperidine-amides-8641-covalent
     RDKit          3D

 23 24  0  0  0  0  0  0  0  0999 V2000
    7.0770   -3.2680   19.2630 C   0  0  0  0  0  0  0  0  0  0  0  0
    6.3520   -4.0390   20.2780 C   0  0  0  0  0  0  0  0  0  0  0  0
    5.3270   -4.6480   19.9220 O   0  0  0  0  0  0  0  0  0  0  0  0
    6.8250   -4.1180   21.6170 N   0  0  0  0  0  0  0  0  0  0  0  0
    7.7360   -3.1140   22.1140 C   0  0  0  0  0  0  0  0  0  0  0  0
    7.3700   -2.7550   23.5190 C   0  0  0  0  0  0  0  0  0  0  0  0
    6.0980   -3.5130   23.7920 C   0  0  0  0  0  0  0  0  0  0  0  0
    5.6140   -3.2510   25.1870 C   0  0  0  0  0  0  0  0  0  0  0  0
    4.4690   -2.8200   25.2930 O   0  0  0  0  0  0  0  0  0  0  0  0
    6.4710   -3.4990   26.2490 N   0  0  0  0  0  0  0  0  0  0  0  0
    6.0920   -4.2410   27.4070 C   0  0  0  0  0  0  0  0  0  0  0  0
    5.1590   -5.2930   27.2140 C   0  0  0  0  0  0  0  0  0  0  0  0
    5.1190   -6.0560   26.0670 C   0  0  0  0  0  0  0  0  0  0  0  0
    4.2010   -7.0910   25.9030 C   0  0  0  0  0  0  0  0  0  0  0  0
    4.2250   -7.8130   24.7120 O   0  0  0  0  0  0  0  0  0  0  0  0
    3.8380   -7.0500   23.6400 C   0  0  0  0  0  0  0  0  0  0  0  0
    3.3040   -7.4040   26.8680 C   0  0  0  0  0  0  0  0  0  0  0  0
    2.4250   -8.3660   26.8040 O   0  0  0  0  0  0  0  0  0  0  0  0
    3.2240   -6.6710   28.1400 C   0  0  0  0  0  0  0  0  0  0  0  0
    4.2400   -5.5660   28.2380 C   0  0  0  0  0  0  0  0  0  0  0  0
    4.2430   -4.5160   29.8400 Br  0  0  0  0  0  0  0  0  0  0  0  0
    6.1600   -4.9670   23.5990 C   0  0  0  0  0  0  0  0  0  0  0  0
    6.6930   -5.3380   22.3820 C   0  0  0  0  0  0  0  0  0  0  0  0
  1  2  1  0
  2  3  2  0
  2  4  1  0
  4  5  1  0
  5  6  1  0
  6  7  1  0
  7  8  1  0
  8  9  2  0
  8 10  1  0
 10 11  1  0
 11 12  1  0
 12 13  2  0
 13 14  1  0
 14 15  1  0
 15 16  1  0
 14 17  2  0
 17 18  1  0
 17 19  1  0
 12 20  1  0
 19 20  2  0
 20 21  1  0
  7 22  1  0
  4 23  1  0
 22 23  1  0
M  END
