piperidine-amides-12519-covalent
     RDKit          3D

 23 25  0  0  0  0  0  0  0  0999 V2000
    7.0860   -3.2950   19.1960 C   0  0  0  0  0  0  0  0  0  0  0  0
    6.3510   -4.0620   20.2230 C   0  0  0  0  0  0  0  0  0  0  0  0
    5.2660   -4.5660   19.8830 O   0  0  0  0  0  0  0  0  0  0  0  0
    6.8870   -4.2560   21.4970 N   0  0  0  0  0  0  0  0  0  0  0  0
    7.6060   -3.1950   22.1350 C   0  0  0  0  0  0  0  0  0  0  0  0
    7.0200   -2.7340   23.3870 C   0  0  0  0  0  0  0  0  0  0  0  0
    6.4940   -3.8160   24.2300 C   0  0  0  0  0  0  0  0  0  0  0  0
    5.7500   -3.2600   25.3790 C   0  0  0  0  0  0  0  0  0  0  0  0
    4.5270   -3.0470   25.2520 O   0  0  0  0  0  0  0  0  0  0  0  0
    6.4130   -2.9830   26.5870 N   0  0  0  0  0  0  0  0  0  0  0  0
    6.3990   -1.6630   27.2510 C   0  0  0  0  0  0  0  0  0  0  0  0
    7.0070   -1.5750   28.5810 C   0  0  0  0  0  0  0  0  0  0  0  0
    7.0160   -0.3220   29.2780 C   0  0  0  0  0  0  0  0  0  0  0  0
    6.4390    0.7730   28.6540 C   0  0  0  0  0  0  0  0  0  0  0  0
    5.8450    0.7060   27.3590 C   0  0  0  0  0  0  0  0  0  0  0  0
    5.8180   -0.4810   26.6550 C   0  0  0  0  0  0  0  0  0  0  0  0
    5.3300    2.0750   27.0160 C   0  0  0  0  0  0  0  0  0  0  0  0
    5.5260    2.5260   25.8730 O   0  0  0  0  0  0  0  0  0  0  0  0
    4.6700    2.7720   27.9350 N   0  0  0  0  0  0  0  0  0  0  0  0
    5.2350    2.6660   29.3000 C   0  0  0  0  0  0  0  0  0  0  0  0
    6.4470    1.9790   29.3310 C   0  0  0  0  0  0  0  0  0  0  0  0
    5.7510   -4.8820   23.5250 C   0  0  0  0  0  0  0  0  0  0  0  0
    6.5000   -5.3870   22.3240 C   0  0  0  0  0  0  0  0  0  0  0  0
  1  2  1  0
  2  3  2  0
  2  4  1  0
  4  5  1  0
  5  6  1  0
  6  7  1  0
  7  8  1  0
  8  9  2  0
  8 10  1  0
 10 11  1  0
 11 12  2  0
 12 13  1  0
 13 14  2  0
 14 15  1  0
 11 16  1  0
 15 16  2  0
 15 17  1  0
 17 18  2  0
 17 19  1  0
 19 20  1  0
 14 21  1  0
 20 21  1  0
  7 22  1  0
  4 23  1  0
 22 23  1  0
M  END
