piperidine-amides-3243-covalent
     RDKit          3D

 22 23  0  0  0  0  0  0  0  0999 V2000
    7.0210   -3.3580   19.3200 C   0  0  0  0  0  0  0  0  0  0  0  0
    6.3500   -4.1840   20.3250 C   0  0  0  0  0  0  0  0  0  0  0  0
    5.3860   -4.8710   19.9870 O   0  0  0  0  0  0  0  0  0  0  0  0
    6.8280   -4.2390   21.6830 N   0  0  0  0  0  0  0  0  0  0  0  0
    7.7120   -3.2070   22.1770 C   0  0  0  0  0  0  0  0  0  0  0  0
    7.4140   -2.9160   23.6140 C   0  0  0  0  0  0  0  0  0  0  0  0
    6.0760   -3.5520   23.9210 C   0  0  0  0  0  0  0  0  0  0  0  0
    5.6560   -3.1330   25.2890 C   0  0  0  0  0  0  0  0  0  0  0  0
    4.4650   -3.0670   25.6440 O   0  0  0  0  0  0  0  0  0  0  0  0
    6.6840   -2.8130   26.1980 N   0  0  0  0  0  0  0  0  0  0  0  0
    6.5820   -1.6830   27.1010 C   0  0  0  0  0  0  0  0  0  0  0  0
    5.9280   -0.4650   26.5120 C   0  0  0  0  0  0  0  0  0  0  0  0
    5.7770    0.6830   27.2790 C   0  0  0  0  0  0  0  0  0  0  0  0
    6.2430    0.6950   28.6090 C   0  0  0  0  0  0  0  0  0  0  0  0
    6.1200    1.8060   29.4190 C   0  0  0  0  0  0  0  0  0  0  0  0
    5.3020    2.8290   28.7790 C   0  0  0  0  0  0  0  0  0  0  0  0
    7.2320    2.6000   29.4780 C   0  0  0  0  0  0  0  0  0  0  0  0
    5.8970    1.4670   30.5950 O   0  0  0  0  0  0  0  0  0  0  0  0
    6.8370   -0.4410   29.1040 C   0  0  0  0  0  0  0  0  0  0  0  0
    7.0080   -1.6080   28.3810 C   0  0  0  0  0  0  0  0  0  0  0  0
    6.0050   -4.9910   23.7170 C   0  0  0  0  0  0  0  0  0  0  0  0
    6.6050   -5.3910   22.5270 C   0  0  0  0  0  0  0  0  0  0  0  0
  1  2  1  0
  2  3  2  0
  2  4  1  0
  4  5  1  0
  5  6  1  0
  6  7  1  0
  7  8  1  0
  8  9  2  0
  8 10  1  0
 10 11  1  0
 11 12  2  0
 12 13  1  0
 13 14  2  0
 14 15  1  0
 15 16  1  0
 15 17  1  0
 15 18  1  0
 14 19  1  0
 11 20  1  0
 19 20  2  0
  7 21  1  0
  4 22  1  0
 21 22  1  0
M  END
