piperidine-amides-33379-covalent
     RDKit          3D

 25 27  0  0  0  0  0  0  0  0999 V2000
    7.0410   -3.3450   19.3550 C   0  0  0  0  0  0  0  0  0  0  0  0
    6.4160   -4.2250   20.3570 C   0  0  0  0  0  0  0  0  0  0  0  0
    5.3920   -4.8500   19.9840 O   0  0  0  0  0  0  0  0  0  0  0  0
    6.9680   -4.4100   21.6560 N   0  0  0  0  0  0  0  0  0  0  0  0
    6.5290   -5.5120   22.4270 C   0  0  0  0  0  0  0  0  0  0  0  0
    6.0090   -5.1520   23.7500 C   0  0  0  0  0  0  0  0  0  0  0  0
    6.4290   -3.8390   24.3010 C   0  0  0  0  0  0  0  0  0  0  0  0
    5.3870   -3.3040   25.2650 C   0  0  0  0  0  0  0  0  0  0  0  0
    4.6390   -2.3980   24.8800 O   0  0  0  0  0  0  0  0  0  0  0  0
    5.1950   -3.7930   26.5900 N   0  0  0  0  0  0  0  0  0  0  0  0
    4.0490   -4.6160   26.9570 C   0  0  0  0  0  0  0  0  0  0  0  0
    3.5370   -4.5570   28.3200 C   0  0  0  0  0  0  0  0  0  0  0  0
    4.7150   -3.7780   28.5820 C   0  0  0  0  0  0  0  0  0  0  0  0
    5.8460   -4.4630   28.7010 C   0  0  0  0  0  0  0  0  0  0  0  0
    6.0270   -6.3680   28.6260 Br  0  0  0  0  0  0  0  0  0  0  0  0
    7.0580   -3.4840   28.9080 C   0  0  0  0  0  0  0  0  0  0  0  0
    7.0190   -1.9100   28.9890 C   0  0  0  0  0  0  0  0  0  0  0  0
    5.6130   -1.3890   28.8540 C   0  0  0  0  0  0  0  0  0  0  0  0
    5.0890   -0.1000   28.8900 O   0  0  0  0  0  0  0  0  0  0  0  0
    5.6390    0.8820   29.7690 C   0  0  0  0  0  0  0  0  0  0  0  0
    4.7440   -2.4980   28.6730 C   0  0  0  0  0  0  0  0  0  0  0  0
    6.1940   -2.8350   28.7480 C   0  0  0  0  0  0  0  0  0  0  0  0
    6.3650   -3.6170   27.4590 C   0  0  0  0  0  0  0  0  0  0  0  0
    6.7780   -2.8110   23.2650 C   0  0  0  0  0  0  0  0  0  0  0  0
    7.6540   -3.3410   22.3330 C   0  0  0  0  0  0  0  0  0  0  0  0
  1  2  1  0
  2  3  2  0
  2  4  1  0
  4  5  1  0
  5  6  1  0
  6  7  1  0
  7  8  1  0
  8  9  2  0
  8 10  1  0
 10 11  1  0
 11 12  1  0
 12 13  1  0
 13 14  1  0
 14 15  1  0
 14 16  2  0
 16 17  1  0
 17 18  2  0
 18 19  1  0
 19 20  1  0
 13 21  2  0
 18 21  1  0
 21 22  1  0
 10 23  1  0
 22 23  1  0
  7 24  1  0
  4 25  1  0
 24 25  1  0
M  END
