piperidine-amides-2617-covalent
     RDKit          3D

 25 26  0  0  0  0  0  0  0  0999 V2000
    7.1240   -3.2410   19.1980 C   0  0  0  0  0  0  0  0  0  0  0  0
    6.3600   -4.0000   20.2200 C   0  0  0  0  0  0  0  0  0  0  0  0
    5.3000   -4.5180   19.8710 O   0  0  0  0  0  0  0  0  0  0  0  0
    6.8690   -4.1430   21.5060 N   0  0  0  0  0  0  0  0  0  0  0  0
    7.7400   -3.1680   22.1140 C   0  0  0  0  0  0  0  0  0  0  0  0
    7.2220   -2.7570   23.4580 C   0  0  0  0  0  0  0  0  0  0  0  0
    5.9160   -3.4880   23.7880 C   0  0  0  0  0  0  0  0  0  0  0  0
    5.6590   -3.2220   25.2140 C   0  0  0  0  0  0  0  0  0  0  0  0
    4.5360   -2.8320   25.5680 O   0  0  0  0  0  0  0  0  0  0  0  0
    6.6860   -3.4120   26.1540 N   0  0  0  0  0  0  0  0  0  0  0  0
    6.3390   -3.4880   27.5530 C   0  0  2  0  0  0  0  0  0  0  0  0
    7.4490   -2.7180   28.2210 C   0  0  0  0  0  0  0  0  0  0  0  0
    7.1700   -1.7850   29.1890 C   0  0  0  0  0  0  0  0  0  0  0  0
    6.4960   -0.6730   28.8160 C   0  0  0  0  0  0  0  0  0  0  0  0
    6.8030    0.4500   29.5320 C   0  0  0  0  0  0  0  0  0  0  0  0
    6.0820   -4.7040   28.1440 C   0  0  1  0  0  0  0  0  0  0  0  0
    4.9350   -4.8250   28.8950 O   0  0  0  0  0  0  0  0  0  0  0  0
    6.0200   -5.8230   27.1830 C   0  0  0  0  0  0  0  0  0  0  0  0
    4.8850   -6.2200   26.5090 O   0  0  0  0  0  0  0  0  0  0  0  0
    7.3320   -6.4080   27.0920 N   0  0  0  0  0  0  0  0  0  0  0  0
    8.0250   -5.7790   26.0060 C   0  0  0  0  0  0  0  0  0  0  0  0
    8.7040   -4.6360   26.1000 C   0  0  0  0  0  0  0  0  0  0  0  0
    9.5480   -5.8750   26.4060 C   0  0  0  0  0  0  0  0  0  0  0  0
    5.8180   -4.9330   23.4490 C   0  0  0  0  0  0  0  0  0  0  0  0
    6.5990   -5.3410   22.2590 C   0  0  0  0  0  0  0  0  0  0  0  0
  1  2  1  0
  2  3  2  0
  2  4  1  0
  4  5  1  0
  5  6  1  0
  6  7  1  0
  7  8  1  0
  8  9  2  0
  8 10  1  0
 10 11  1  0
 11 12  1  1
 12 13  1  0
 13 14  1  0
 14 15  1  0
 11 16  1  0
 16 17  1  6
 16 18  1  0
 18 19  2  0
 18 20  1  0
 20 21  1  0
 21 22  1  0
 21 23  1  0
 22 23  1  0
  7 24  1  0
  4 25  1  0
 24 25  1  0
M  END
