piperidine-amides-12227-covalent
     RDKit          3D

 25 27  0  0  0  0  0  0  0  0999 V2000
    7.0560   -3.3750   19.3140 C   0  0  0  0  0  0  0  0  0  0  0  0
    6.3710   -4.2350   20.2660 C   0  0  0  0  0  0  0  0  0  0  0  0
    5.3160   -4.7810   19.9560 O   0  0  0  0  0  0  0  0  0  0  0  0
    6.9630   -4.5020   21.5390 N   0  0  0  0  0  0  0  0  0  0  0  0
    6.5080   -5.6210   22.3170 C   0  0  0  0  0  0  0  0  0  0  0  0
    5.7370   -5.1440   23.5260 C   0  0  0  0  0  0  0  0  0  0  0  0
    6.3860   -3.8750   24.0680 C   0  0  0  0  0  0  0  0  0  0  0  0
    5.5290   -3.2540   25.0990 C   0  0  0  0  0  0  0  0  0  0  0  0
    4.5220   -3.8470   25.5550 O   0  0  0  0  0  0  0  0  0  0  0  0
    5.8580   -1.9250   25.5680 N   0  0  0  0  0  0  0  0  0  0  0  0
    5.9000   -1.7510   26.9960 C   0  0  0  0  0  0  0  0  0  0  0  0
    4.7470   -2.1780   26.9810 C   0  0  0  0  0  0  0  0  0  0  0  0
    5.1980   -2.0910   25.6850 N   0  0  0  0  0  0  0  0  0  0  0  0
    6.6550   -1.5200   25.8450 N   0  0  0  0  0  0  0  0  0  0  0  0
    7.5340   -1.2010   24.6720 C   0  0  0  0  0  0  0  0  0  0  0  0
    7.2070    0.0940   24.1870 C   0  0  0  0  0  0  0  0  0  0  0  0
    7.8470    0.6770   23.1070 C   0  0  0  0  0  0  0  0  0  0  0  0
    8.8850   -0.0910   22.4660 C   0  0  0  0  0  0  0  0  0  0  0  0
    9.2160   -1.3380   22.9020 C   0  0  0  0  0  0  0  0  0  0  0  0
    8.5530   -1.8870   23.9830 C   0  0  0  0  0  0  0  0  0  0  0  0
    8.9850   -3.1260   24.2800 F   0  0  0  0  0  0  0  0  0  0  0  0
    6.8680   -1.3670   27.3020 C   0  0  0  0  0  0  0  0  0  0  0  0
    7.5800   -1.0190   28.5330 C   0  0  0  0  0  0  0  0  0  0  0  0
    6.6820   -2.8650   22.9950 C   0  0  0  0  0  0  0  0  0  0  0  0
    7.6470   -3.4500   22.2120 C   0  0  0  0  0  0  0  0  0  0  0  0
  1  2  1  0
  2  3  2  0
  2  4  1  0
  4  5  1  0
  5  6  1  0
  6  7  1  0
  7  8  1  0
  8  9  2  0
  8 10  1  0
 10 11  1  0
 11 12  1  0
 12 13  2  0
 13 14  1  0
 14 15  1  0
 15 16  2  0
 16 17  1  0
 17 18  2  0
 18 19  1  0
 15 20  1  0
 19 20  2  0
 20 21  1  0
 11 22  2  0
 14 22  1  0
 22 23  1  0
  7 24  1  0
  4 25  1  0
 24 25  1  0
M  END
