piperidine-amides-11684-covalent
     RDKit          3D

 29 31  0  0  0  0  0  0  0  0999 V2000
    7.1180   -3.2750   19.1940 C   0  0  0  0  0  0  0  0  0  0  0  0
    6.3540   -4.0190   20.1890 C   0  0  0  0  0  0  0  0  0  0  0  0
    5.2780   -4.5260   19.8780 O   0  0  0  0  0  0  0  0  0  0  0  0
    6.8810   -4.2170   21.5050 N   0  0  0  0  0  0  0  0  0  0  0  0
    6.4380   -5.3350   22.2940 C   0  0  0  0  0  0  0  0  0  0  0  0
    5.6950   -4.8230   23.4900 C   0  0  0  0  0  0  0  0  0  0  0  0
    6.5920   -3.8000   24.1740 C   0  0  0  0  0  0  0  0  0  0  0  0
    5.8730   -3.2170   25.3370 C   0  0  0  0  0  0  0  0  0  0  0  0
    4.8440   -2.5250   25.2050 O   0  0  0  0  0  0  0  0  0  0  0  0
    6.3640   -3.4650   26.6380 N   0  0  0  0  0  0  0  0  0  0  0  0
    5.7210   -4.5320   27.3590 C   0  0  0  0  0  0  0  0  0  0  0  0
    5.9220   -5.8030   26.5930 C   0  0  0  0  0  0  0  0  0  0  0  0
    4.2760   -4.2060   27.3080 C   0  0  0  0  0  0  0  0  0  0  0  0
    6.1960   -4.8000   28.7210 C   0  0  0  0  0  0  0  0  0  0  0  0
    5.7620   -5.9610   29.3510 C   0  0  0  0  0  0  0  0  0  0  0  0
    4.4140   -6.0560   29.8500 N   0  0  0  0  0  0  0  0  0  0  0  0
    3.2950   -6.2750   28.9810 C   0  0  0  0  0  0  0  0  0  0  0  0
    2.8220   -7.5630   29.0850 C   0  0  0  0  0  0  0  0  0  0  0  0
    2.1830   -7.6940   30.2900 N   0  0  0  0  0  0  0  0  0  0  0  0
    1.4300   -8.8980   30.6270 C   0  0  0  0  0  0  0  0  0  0  0  0
    1.1410   -9.3350   31.9260 C   0  0  0  0  0  0  0  0  0  0  0  0
    0.3770  -10.5790   32.1490 C   0  0  0  0  0  0  0  0  0  0  0  0
   -0.0900  -11.3740   31.1130 C   0  0  0  0  0  0  0  0  0  0  0  0
    0.2010  -10.9310   29.8400 C   0  0  0  0  0  0  0  0  0  0  0  0
    0.9680   -9.6800   29.6210 C   0  0  0  0  0  0  0  0  0  0  0  0
    3.0450   -7.4840   31.3170 C   0  0  0  0  0  0  0  0  0  0  0  0
    4.4110   -6.9240   30.9870 C   0  0  0  0  0  0  0  0  0  0  0  0
    7.0720   -2.6950   23.3050 C   0  0  0  0  0  0  0  0  0  0  0  0
    7.6300   -3.1650   22.1230 C   0  0  0  0  0  0  0  0  0  0  0  0
  1  2  1  0
  2  3  2  0
  2  4  1  0
  4  5  1  0
  5  6  1  0
  6  7  1  0
  7  8  1  0
  8  9  2  0
  8 10  1  0
 11 10  1  0
 11 12  1  0
 11 13  1  0
 11 14  1  0
 14 15  1  0
 15 16  1  0
 16 17  1  0
 17 18  1  0
 18 19  1  0
 19 20  1  0
 20 21  2  0
 21 22  1  0
 22 23  2  0
 23 24  1  0
 20 25  1  0
 24 25  2  0
 19 26  1  0
 16 27  1  0
 26 27  1  0
  7 28  1  0
  4 29  1  0
 28 29  1  0
M  END
