piperidine-amides-34293-covalent
     RDKit          3D

 31 34  0  0  0  0  0  0  0  0999 V2000
    7.0120   -3.3510   19.3850 C   0  0  0  0  0  0  0  0  0  0  0  0
    6.3720   -4.2350   20.3780 C   0  0  0  0  0  0  0  0  0  0  0  0
    5.4150   -4.9530   20.0080 O   0  0  0  0  0  0  0  0  0  0  0  0
    6.8270   -4.3220   21.7140 N   0  0  0  0  0  0  0  0  0  0  0  0
    7.6540   -3.2870   22.3010 C   0  0  0  0  0  0  0  0  0  0  0  0
    6.8620   -2.6760   23.4670 C   0  0  0  0  0  0  0  0  0  0  0  0
    6.3060   -3.8040   24.3240 C   0  0  0  0  0  0  0  0  0  0  0  0
    5.2330   -3.2530   25.2170 C   0  0  0  0  0  0  0  0  0  0  0  0
    4.2300   -2.8010   24.6410 O   0  0  0  0  0  0  0  0  0  0  0  0
    5.2860   -3.2110   26.6590 N   0  0  0  0  0  0  0  0  0  0  0  0
    4.1230   -3.4940   27.4610 C   0  0  0  0  0  0  0  0  0  0  0  0
    4.4770   -3.8060   28.9280 C   0  0  0  0  0  0  0  0  0  0  0  0
    5.4240   -4.8910   28.9800 N   0  0  0  0  0  0  0  0  0  0  0  0
    5.0480   -6.3000   29.0280 C   0  0  1  0  0  0  0  0  0  0  0  0
    6.1580   -6.8720   29.5920 C   0  0  0  0  0  0  0  0  0  0  0  0
    3.8380   -6.6220   29.5690 C   0  0  0  0  0  0  0  0  0  0  0  0
    3.6980   -7.6810   30.4760 N   0  0  0  0  0  0  0  0  0  0  0  0
    2.3010   -7.6100   30.7210 C   0  0  0  0  0  0  0  0  0  0  0  0
    1.8040   -8.6600   31.6900 C   0  0  0  0  0  0  0  0  0  0  0  0
    1.1190   -9.3030   30.5150 C   0  0  0  0  0  0  0  0  0  0  0  0
    0.2760  -10.5780   30.5320 C   0  0  0  0  0  0  0  0  0  0  0  0
    0.4580  -10.7870   32.0030 C   0  0  0  0  0  0  0  0  0  0  0  0
    0.0170  -11.7560   32.9120 C   0  0  0  0  0  0  0  0  0  0  0  0
    1.0940  -10.2340   33.2360 C   0  0  0  0  0  0  0  0  0  0  0  0
    1.8640   -8.9990   33.0040 C   0  0  0  0  0  0  0  0  0  0  0  0
    1.6910   -6.5510   29.9860 N   0  0  0  0  0  0  0  0  0  0  0  0
    2.6820   -5.9510   29.2720 O   0  0  0  0  0  0  0  0  0  0  0  0
    6.5480   -4.5310   28.2040 C   0  0  0  0  0  0  0  0  0  0  0  0
    6.5160   -3.2940   27.2910 C   0  0  0  0  0  0  0  0  0  0  0  0
    5.7140   -4.9760   23.5710 C   0  0  0  0  0  0  0  0  0  0  0  0
    6.5160   -5.4360   22.5650 C   0  0  0  0  0  0  0  0  0  0  0  0
  1  2  1  0
  2  3  2  0
  2  4  1  0
  4  5  1  0
  5  6  1  0
  6  7  1  0
  7  8  1  0
  8  9  2  0
  8 10  1  0
 10 11  1  0
 11 12  1  0
 12 13  1  0
 13 14  1  0
 14 15  1  1
 14 16  1  0
 16 17  2  0
 17 18  1  0
 18 19  1  0
 19 20  2  0
 20 21  1  0
 21 22  2  0
 22 23  1  0
 22 24  1  0
 19 25  1  0
 24 25  2  0
 18 26  2  0
 16 27  1  0
 26 27  1  0
 13 28  1  0
 10 29  1  0
 28 29  1  0
  7 30  1  0
  4 31  1  0
 30 31  1  0
M  END
