piperidine-amides-32809-covalent
     RDKit          3D

 26 27  0  0  0  0  0  0  0  0999 V2000
    7.0790   -3.2840   19.2970 C   0  0  0  0  0  0  0  0  0  0  0  0
    6.3520   -4.1010   20.3100 C   0  0  0  0  0  0  0  0  0  0  0  0
    5.3430   -4.7310   19.9520 O   0  0  0  0  0  0  0  0  0  0  0  0
    6.8470   -4.1780   21.6390 N   0  0  0  0  0  0  0  0  0  0  0  0
    7.7400   -3.1680   22.2030 C   0  0  0  0  0  0  0  0  0  0  0  0
    7.5170   -3.0430   23.7250 C   0  0  0  0  0  0  0  0  0  0  0  0
    6.2140   -3.6980   24.0010 C   0  0  0  0  0  0  0  0  0  0  0  0
    5.5400   -3.4070   25.2930 C   0  0  0  0  0  0  0  0  0  0  0  0
    4.3440   -3.1450   25.1530 O   0  0  0  0  0  0  0  0  0  0  0  0
    6.1470   -3.4130   26.5730 N   0  0  0  0  0  0  0  0  0  0  0  0
    6.2630   -2.1730   27.2700 C   0  0  0  0  0  0  0  0  0  0  0  0
    5.1220   -1.5310   27.7240 C   0  0  0  0  0  0  0  0  0  0  0  0
    3.8770   -2.1440   27.4110 C   0  0  0  0  0  0  0  0  0  0  0  0
    2.6350   -1.6620   27.7670 C   0  0  0  0  0  0  0  0  0  0  0  0
    2.5260   -0.4100   28.5360 C   0  0  0  0  0  0  0  0  0  0  0  0
    0.9540    0.2270   29.0010 Cl  0  0  0  0  0  0  0  0  0  0  0  0
    3.8010    0.3120   28.9170 C   0  0  0  0  0  0  0  0  0  0  0  0
    5.0860   -0.3600   28.4440 C   0  0  0  0  0  0  0  0  0  0  0  0
    6.5940    0.4450   28.8660 Cl  0  0  0  0  0  0  0  0  0  0  0  0
    5.7760   -4.5770   27.3530 C   0  0  1  0  0  0  0  0  0  0  0  0
    5.9960   -5.9740   26.9200 C   0  0  0  0  0  0  0  0  0  0  0  0
    4.8380   -6.5130   27.7390 C   0  0  0  0  0  0  0  0  0  0  0  0
    6.5390   -4.8100   28.6710 C   0  0  0  0  0  0  0  0  0  0  0  0
    7.0010   -6.0350   28.8160 O   0  0  0  0  0  0  0  0  0  0  0  0
    6.2320   -5.1680   23.7790 C   0  0  0  0  0  0  0  0  0  0  0  0
    6.6900   -5.4340   22.3660 C   0  0  0  0  0  0  0  0  0  0  0  0
  1  2  1  0
  2  3  2  0
  2  4  1  0
  4  5  1  0
  5  6  1  0
  6  7  1  0
  7  8  1  0
  8  9  2  0
  8 10  1  0
 10 11  1  0
 11 12  1  0
 12 13  2  0
 13 14  1  0
 14 15  2  0
 15 16  1  0
 15 17  1  0
 12 18  1  0
 17 18  2  0
 18 19  1  0
 10 20  1  0
 20 21  1  6
 21 22  1  0
 20 23  1  0
 23 24  1  0
  7 25  1  0
  4 26  1  0
 25 26  1  0
M  END
