piperidine-amides-3393-covalent
     RDKit          3D

 21 22  0  0  0  0  0  0  0  0999 V2000
    7.0500   -3.3520   19.3090 C   0  0  0  0  0  0  0  0  0  0  0  0
    6.3790   -4.1800   20.3070 C   0  0  0  0  0  0  0  0  0  0  0  0
    5.3770   -4.8170   19.9800 O   0  0  0  0  0  0  0  0  0  0  0  0
    6.9060   -4.3020   21.6460 N   0  0  0  0  0  0  0  0  0  0  0  0
    6.5740   -5.4700   22.4340 C   0  0  0  0  0  0  0  0  0  0  0  0
    6.0280   -5.1010   23.8020 C   0  0  0  0  0  0  0  0  0  0  0  0
    6.0570   -3.5900   23.9880 C   0  0  0  0  0  0  0  0  0  0  0  0
    5.6080   -3.2070   25.3520 C   0  0  0  0  0  0  0  0  0  0  0  0
    4.4080   -3.2140   25.6830 O   0  0  0  0  0  0  0  0  0  0  0  0
    6.5770   -2.8220   26.2960 N   0  0  0  0  0  0  0  0  0  0  0  0
    6.4350   -1.5540   26.9760 C   0  0  0  0  0  0  0  0  0  0  0  0
    6.9650   -1.6120   28.3780 C   0  0  0  0  0  0  0  0  0  0  0  0
    6.9210   -0.5030   29.1920 C   0  0  0  0  0  0  0  0  0  0  0  0
    6.3690    0.6930   28.6960 C   0  0  0  0  0  0  0  0  0  0  0  0
    6.3160    1.8120   29.5040 C   0  0  0  0  0  0  0  0  0  0  0  0
    5.4340    1.6730   30.6550 C   0  0  0  0  0  0  0  0  0  0  0  0
    4.1420    1.6700   30.2120 F   0  0  0  0  0  0  0  0  0  0  0  0
    5.8860    0.7470   27.4140 C   0  0  0  0  0  0  0  0  0  0  0  0
    5.9230   -0.3550   26.5830 C   0  0  0  0  0  0  0  0  0  0  0  0
    7.3080   -2.9290   23.5700 C   0  0  0  0  0  0  0  0  0  0  0  0
    7.6690   -3.2330   22.1970 C   0  0  0  0  0  0  0  0  0  0  0  0
  1  2  1  0
  2  3  2  0
  2  4  1  0
  4  5  1  0
  5  6  1  0
  6  7  1  0
  7  8  1  0
  8  9  2  0
  8 10  1  0
 10 11  1  0
 11 12  2  0
 12 13  1  0
 13 14  2  0
 14 15  1  0
 15 16  1  0
 16 17  1  0
 14 18  1  0
 11 19  1  0
 18 19  2  0
  7 20  1  0
  4 21  1  0
 20 21  1  0
M  END
