piperidine-amides-23623-covalent
     RDKit          3D

 24 26  0  0  0  0  0  0  0  0999 V2000
    7.1410   -3.3350   19.2960 C   0  0  0  0  0  0  0  0  0  0  0  0
    6.4280   -4.1540   20.2850 C   0  0  0  0  0  0  0  0  0  0  0  0
    5.3300   -4.6480   19.9280 O   0  0  0  0  0  0  0  0  0  0  0  0
    7.0040   -4.4320   21.5470 N   0  0  0  0  0  0  0  0  0  0  0  0
    6.4720   -5.4990   22.3080 C   0  0  0  0  0  0  0  0  0  0  0  0
    5.9900   -5.1000   23.6240 C   0  0  0  0  0  0  0  0  0  0  0  0
    6.7040   -3.9710   24.2680 C   0  0  0  0  0  0  0  0  0  0  0  0
    5.9740   -3.4900   25.4720 C   0  0  0  0  0  0  0  0  0  0  0  0
    4.9240   -2.8320   25.3310 O   0  0  0  0  0  0  0  0  0  0  0  0
    6.4440   -3.7750   26.7610 N   0  0  0  0  0  0  0  0  0  0  0  0
    6.1660   -2.9940   27.9050 C   0  0  0  0  0  0  0  0  0  0  0  0
    5.1390   -3.4110   28.8350 C   0  0  0  0  0  0  0  0  0  0  0  0
    5.4110   -4.8670   29.2060 C   0  0  0  0  0  0  0  0  0  0  0  0
    5.0590   -5.5610   28.0000 N   0  0  0  0  0  0  0  0  0  0  0  0
    3.9990   -6.4690   28.3220 C   0  0  0  0  0  0  0  0  0  0  0  0
    4.2760   -7.0690   29.7050 C   0  0  0  0  0  0  0  0  0  0  0  0
    3.2180   -8.0250   30.1540 C   0  0  0  0  0  0  0  0  0  0  0  0
    2.0690   -8.2300   29.1590 C   0  0  0  0  0  0  0  0  0  0  0  0
    1.9950   -7.6010   27.9550 N   0  0  0  0  0  0  0  0  0  0  0  0
    2.9250   -6.7600   27.5640 N   0  0  0  0  0  0  0  0  0  0  0  0
    6.1050   -6.0510   27.2550 C   0  0  0  0  0  0  0  0  0  0  0  0
    7.1290   -5.0010   26.9980 C   0  0  0  0  0  0  0  0  0  0  0  0
    6.8930   -2.7920   23.3090 C   0  0  0  0  0  0  0  0  0  0  0  0
    7.7110   -3.3100   22.1950 C   0  0  0  0  0  0  0  0  0  0  0  0
  1  2  1  0
  2  3  2  0
  2  4  1  0
  4  5  1  0
  5  6  1  0
  6  7  1  0
  7  8  1  0
  8  9  2  0
  8 10  1  0
 10 11  1  0
 11 12  1  0
 12 13  1  0
 13 14  1  0
 14 15  1  0
 15 16  2  0
 16 17  1  0
 17 18  2  0
 18 19  1  0
 15 20  1  0
 19 20  2  0
 14 21  1  0
 10 22  1  0
 21 22  1  0
  7 23  1  0
  4 24  1  0
 23 24  1  0
M  END
