piperidine-amides-821-covalent
     RDKit          3D

 25 27  0  0  0  0  0  0  0  0999 V2000
    7.0830   -3.3550   19.3090 C   0  0  0  0  0  0  0  0  0  0  0  0
    6.4020   -4.0950   20.3380 C   0  0  0  0  0  0  0  0  0  0  0  0
    5.3890   -4.7750   19.9810 O   0  0  0  0  0  0  0  0  0  0  0  0
    6.8380   -4.1460   21.6840 N   0  0  0  0  0  0  0  0  0  0  0  0
    6.7480   -5.4480   22.3660 C   0  0  0  0  0  0  0  0  0  0  0  0
    5.7190   -5.0580   23.4850 C   0  0  0  0  0  0  0  0  0  0  0  0
    6.1260   -3.6980   24.0200 C   0  0  0  0  0  0  0  0  0  0  0  0
    5.6820   -3.6370   25.5460 C   0  0  0  0  0  0  0  0  0  0  0  0
    4.9140   -4.5620   25.7330 O   0  0  0  0  0  0  0  0  0  0  0  0
    6.1560   -2.6760   26.2340 N   0  0  0  0  0  0  0  0  0  0  0  0
    6.4070   -1.6800   27.1330 C   0  0  0  0  0  0  0  0  0  0  0  0
    7.0040   -1.6010   28.3590 C   0  0  0  0  0  0  0  0  0  0  0  0
    7.0980   -0.4250   29.1070 C   0  0  0  0  0  0  0  0  0  0  0  0
    6.5710    0.8720   28.6730 C   0  0  0  0  0  0  0  0  0  0  0  0
    6.9350    1.7880   29.8600 C   0  0  0  0  0  0  0  0  0  0  0  0
    5.7910    2.6930   29.8920 N   0  0  0  0  0  0  0  0  0  0  0  0
    4.7010    2.2420   30.6950 C   0  0  0  0  0  0  0  0  0  0  0  0
    4.5210    3.1570   31.7920 C   0  0  0  0  0  0  0  0  0  0  0  0
    5.4570    4.1590   31.6400 O   0  0  0  0  0  0  0  0  0  0  0  0
    6.1840    3.8820   30.5350 C   0  0  0  0  0  0  0  0  0  0  0  0
    7.2070    4.6890   30.0930 O   0  0  0  0  0  0  0  0  0  0  0  0
    5.9370    0.7620   27.3320 C   0  0  0  0  0  0  0  0  0  0  0  0
    5.8130   -0.3740   26.5430 C   0  0  0  0  0  0  0  0  0  0  0  0
    7.5170   -3.2170   23.6390 C   0  0  0  0  0  0  0  0  0  0  0  0
    7.6420   -3.1030   22.2860 C   0  0  0  0  0  0  0  0  0  0  0  0
  1  2  1  0
  2  3  2  0
  2  4  1  0
  4  5  1  0
  5  6  1  0
  6  7  1  0
  7  8  1  0
  8  9  2  0
  8 10  1  0
 10 11  1  0
 11 12  2  0
 12 13  1  0
 13 14  2  0
 14 15  1  0
 15 16  1  0
 16 17  1  0
 17 18  1  0
 18 19  1  0
 16 20  1  0
 19 20  1  0
 20 21  2  0
 14 22  1  0
 11 23  1  0
 22 23  2  0
  7 24  1  0
  4 25  1  0
 24 25  1  0
M  END
