piperidine-amides-6332-covalent
     RDKit          3D

 25 27  0  0  0  0  0  0  0  0999 V2000
    7.0230   -3.3330   19.3460 C   0  0  0  0  0  0  0  0  0  0  0  0
    6.3620   -4.1770   20.3560 C   0  0  0  0  0  0  0  0  0  0  0  0
    5.4230   -4.9260   20.0030 O   0  0  0  0  0  0  0  0  0  0  0  0
    6.7840   -4.1840   21.7010 N   0  0  0  0  0  0  0  0  0  0  0  0
    6.6330   -5.4090   22.4580 C   0  0  0  0  0  0  0  0  0  0  0  0
    6.0780   -5.0620   23.8530 C   0  0  0  0  0  0  0  0  0  0  0  0
    6.0340   -3.5500   23.9740 C   0  0  0  0  0  0  0  0  0  0  0  0
    5.5840   -3.1060   25.3220 C   0  0  0  0  0  0  0  0  0  0  0  0
    4.3580   -2.9120   25.4670 O   0  0  0  0  0  0  0  0  0  0  0  0
    6.4890   -2.9170   26.4030 N   0  0  0  0  0  0  0  0  0  0  0  0
    6.6680   -1.6360   27.0660 C   0  0  1  0  0  0  0  0  0  0  0  0
    5.6940   -0.6520   26.4440 C   0  0  0  0  0  0  0  0  0  0  0  0
    5.6350    0.6190   26.9600 C   0  0  0  0  0  0  0  0  0  0  0  0
    6.0640    0.8040   28.2470 C   0  0  0  0  0  0  0  0  0  0  0  0
    6.1020   -0.3720   29.0350 N   0  0  0  0  0  0  0  0  0  0  0  0
    5.8040   -0.3670   30.3880 C   0  0  0  0  0  0  0  0  0  0  0  0
    6.7020    0.1940   31.1770 C   0  0  0  0  0  0  0  0  0  0  0  0
    6.6950    0.3800   32.6600 C   0  0  0  0  0  0  0  0  0  0  0  0
    5.3100   -0.2990   32.9120 C   0  0  0  0  0  0  0  0  0  0  0  0
    4.1490   -0.9970   32.1390 C   0  0  0  0  0  0  0  0  0  0  0  0
    4.6490   -0.9150   30.7680 C   0  0  0  0  0  0  0  0  0  0  0  0
    3.8460   -1.4490   29.7990 F   0  0  0  0  0  0  0  0  0  0  0  0
    6.7090   -1.5250   28.4460 C   0  0  0  0  0  0  0  0  0  0  0  0
    7.4260   -3.0150   23.6840 C   0  0  0  0  0  0  0  0  0  0  0  0
    7.6890   -3.1630   22.2080 C   0  0  0  0  0  0  0  0  0  0  0  0
  1  2  1  0
  2  3  2  0
  2  4  1  0
  4  5  1  0
  5  6  1  0
  6  7  1  0
  7  8  1  0
  8  9  2  0
  8 10  1  0
 11 10  1  1
 11 12  1  0
 12 13  1  0
 13 14  1  0
 14 15  1  0
 15 16  1  0
 16 17  2  0
 17 18  1  0
 18 19  2  0
 19 20  1  0
 16 21  1  0
 20 21  2  0
 21 22  1  0
 11 23  1  0
 15 23  1  0
  7 24  1  0
  4 25  1  0
 24 25  1  0
M  END
