piperidine-amides-13229-covalent
     RDKit          3D

 19 20  0  0  0  0  0  0  0  0999 V2000
    7.1370   -3.2520   19.1980 C   0  0  0  0  0  0  0  0  0  0  0  0
    6.3530   -3.9940   20.2100 C   0  0  0  0  0  0  0  0  0  0  0  0
    5.2610   -4.4720   19.8450 O   0  0  0  0  0  0  0  0  0  0  0  0
    6.8470   -4.1940   21.4990 N   0  0  0  0  0  0  0  0  0  0  0  0
    7.6020   -3.1520   22.1220 C   0  0  0  0  0  0  0  0  0  0  0  0
    7.3740   -2.9890   23.5550 C   0  0  0  0  0  0  0  0  0  0  0  0
    6.4480   -3.9570   24.1770 C   0  0  0  0  0  0  0  0  0  0  0  0
    5.7780   -3.2870   25.3160 C   0  0  0  0  0  0  0  0  0  0  0  0
    4.5410   -3.1390   25.2810 O   0  0  0  0  0  0  0  0  0  0  0  0
    6.5340   -2.8100   26.4040 N   0  0  0  0  0  0  0  0  0  0  0  0
    6.2150   -3.1080   27.8220 C   0  0  0  0  0  0  0  0  0  0  0  0
    5.8150   -4.5190   28.0620 C   0  0  0  0  0  0  0  0  0  0  0  0
    4.5820   -5.0080   27.4080 C   0  0  0  0  0  0  0  0  0  0  0  0
    4.1900   -6.3780   27.6490 N   0  0  0  0  0  0  0  0  0  0  0  0
    4.8840   -7.2890   28.4520 C   0  0  0  0  0  0  0  0  0  0  0  0
    6.0100   -6.8080   29.0360 C   0  0  0  0  0  0  0  0  0  0  0  0
    6.4170   -5.4690   28.8200 N   0  0  0  0  0  0  0  0  0  0  0  0
    5.5390   -4.6650   23.2320 C   0  0  0  0  0  0  0  0  0  0  0  0
    6.3110   -5.2510   22.2760 C   0  0  0  0  0  0  0  0  0  0  0  0
  1  2  1  0
  2  3  2  0
  2  4  1  0
  4  5  1  0
  5  6  1  0
  6  7  1  0
  7  8  1  0
  8  9  2  0
  8 10  1  0
 10 11  1  0
 11 12  1  0
 12 13  2  0
 13 14  1  0
 14 15  2  0
 15 16  1  0
 12 17  1  0
 16 17  2  0
  7 18  1  0
  4 19  1  0
 18 19  1  0
M  END
