piperidine-amides-1188-covalent
     RDKit          3D

 23 25  0  0  0  0  0  0  0  0999 V2000
    7.0330   -3.3350   19.3390 C   0  0  0  0  0  0  0  0  0  0  0  0
    6.3500   -4.1840   20.3540 C   0  0  0  0  0  0  0  0  0  0  0  0
    5.3870   -4.8820   19.9910 O   0  0  0  0  0  0  0  0  0  0  0  0
    6.8350   -4.2040   21.6840 N   0  0  0  0  0  0  0  0  0  0  0  0
    7.7100   -3.1630   22.2060 C   0  0  0  0  0  0  0  0  0  0  0  0
    7.5390   -3.0700   23.7280 C   0  0  0  0  0  0  0  0  0  0  0  0
    6.1870   -3.6060   24.0260 C   0  0  0  0  0  0  0  0  0  0  0  0
    5.6220   -3.2650   25.3590 C   0  0  0  0  0  0  0  0  0  0  0  0
    4.3890   -3.3070   25.4250 O   0  0  0  0  0  0  0  0  0  0  0  0
    6.4120   -2.9170   26.4680 N   0  0  0  0  0  0  0  0  0  0  0  0
    6.4710   -1.6020   27.0200 C   0  0  0  0  0  0  0  0  0  0  0  0
    7.0200   -1.4710   28.3150 C   0  0  0  0  0  0  0  0  0  0  0  0
    6.7400   -0.0610   28.1520 N   0  0  0  0  0  0  0  0  0  0  0  0
    6.2010    0.3000   27.0370 N   0  0  0  0  0  0  0  0  0  0  0  0
    5.9430    1.7250   26.9140 C   0  0  0  0  0  0  0  0  0  0  0  0
    6.5270    2.4830   27.8940 C   0  0  0  0  0  0  0  0  0  0  0  0
    6.3400    3.9600   27.8790 C   0  0  0  0  0  0  0  0  0  0  0  0
    5.6420    4.6990   26.9940 N   0  0  0  0  0  0  0  0  0  0  0  0
    5.0400    3.8720   25.9780 C   0  0  0  0  0  0  0  0  0  0  0  0
    5.1940    2.3530   25.9350 C   0  0  0  0  0  0  0  0  0  0  0  0
    5.9480   -0.6260   26.1460 C   0  0  0  0  0  0  0  0  0  0  0  0
    6.0780   -5.0700   23.7930 C   0  0  0  0  0  0  0  0  0  0  0  0
    6.6780   -5.4290   22.4450 C   0  0  0  0  0  0  0  0  0  0  0  0
  1  2  1  0
  2  3  2  0
  2  4  1  0
  4  5  1  0
  5  6  1  0
  6  7  1  0
  7  8  1  0
  8  9  2  0
  8 10  1  0
 10 11  1  0
 11 12  1  0
 12 13  2  0
 13 14  1  0
 14 15  1  0
 15 16  2  0
 16 17  1  0
 17 18  2  0
 18 19  1  0
 15 20  1  0
 19 20  2  0
 11 21  2  0
 14 21  1  0
  7 22  1  0
  4 23  1  0
 22 23  1  0
M  END
