piperidine-amides-3536-covalent
     RDKit          3D

 19 20  0  0  0  0  0  0  0  0999 V2000
    7.0990   -3.3160   19.2440 C   0  0  0  0  0  0  0  0  0  0  0  0
    6.3720   -4.0930   20.2380 C   0  0  0  0  0  0  0  0  0  0  0  0
    5.3140   -4.6380   19.9240 O   0  0  0  0  0  0  0  0  0  0  0  0
    6.9130   -4.2860   21.5550 N   0  0  0  0  0  0  0  0  0  0  0  0
    7.5980   -3.1860   22.1640 C   0  0  0  0  0  0  0  0  0  0  0  0
    6.7810   -2.6980   23.3270 C   0  0  0  0  0  0  0  0  0  0  0  0
    6.3830   -3.8820   24.2090 C   0  0  0  0  0  0  0  0  0  0  0  0
    5.6840   -3.3390   25.4130 C   0  0  0  0  0  0  0  0  0  0  0  0
    4.5120   -2.9230   25.3450 O   0  0  0  0  0  0  0  0  0  0  0  0
    6.3500   -3.2820   26.6640 N   0  0  0  0  0  0  0  0  0  0  0  0
    6.2540   -4.4040   27.5790 C   0  0  0  0  0  0  0  0  0  0  0  0
    4.9460   -4.3320   28.3210 C   0  0  1  0  0  0  0  0  0  0  0  0
    4.1030   -5.4160   28.1250 C   0  0  0  0  0  0  0  0  0  0  0  0
    2.8910   -5.2710   28.3990 O   0  0  0  0  0  0  0  0  0  0  0  0
    2.6100   -4.5530   29.5530 C   0  0  0  0  0  0  0  0  0  0  0  0
    3.6930   -3.9620   30.1510 C   0  0  0  0  0  0  0  0  0  0  0  0
    4.9770   -4.1630   29.6940 O   0  0  0  0  0  0  0  0  0  0  0  0
    5.6180   -4.8230   23.3660 C   0  0  0  0  0  0  0  0  0  0  0  0
    6.3960   -5.3160   22.3460 C   0  0  0  0  0  0  0  0  0  0  0  0
  1  2  1  0
  2  3  2  0
  2  4  1  0
  4  5  1  0
  5  6  1  0
  6  7  1  0
  7  8  1  0
  8  9  2  0
  8 10  1  0
 10 11  1  0
 12 11  1  1
 12 13  1  0
 13 14  1  0
 14 15  1  0
 15 16  1  0
 12 17  1  0
 16 17  1  0
  7 18  1  0
  4 19  1  0
 18 19  1  0
M  END
