piperidine-amides-12064-covalent
     RDKit          3D

 25 27  0  0  0  0  0  0  0  0999 V2000
    7.0920   -3.3180   19.2890 C   0  0  0  0  0  0  0  0  0  0  0  0
    6.3760   -4.1330   20.2630 C   0  0  0  0  0  0  0  0  0  0  0  0
    5.3450   -4.7240   19.9460 O   0  0  0  0  0  0  0  0  0  0  0  0
    6.9080   -4.2900   21.5810 N   0  0  0  0  0  0  0  0  0  0  0  0
    6.5320   -5.4320   22.3690 C   0  0  0  0  0  0  0  0  0  0  0  0
    5.7490   -4.9810   23.5730 C   0  0  0  0  0  0  0  0  0  0  0  0
    6.5460   -3.8760   24.2450 C   0  0  0  0  0  0  0  0  0  0  0  0
    5.7880   -3.2810   25.3760 C   0  0  0  0  0  0  0  0  0  0  0  0
    4.5690   -3.0350   25.3090 O   0  0  0  0  0  0  0  0  0  0  0  0
    6.4890   -2.9990   26.5660 N   0  0  0  0  0  0  0  0  0  0  0  0
    6.4180   -1.6760   27.1400 C   0  0  0  0  0  0  0  0  0  0  0  0
    7.0170   -1.5880   28.4990 C   0  0  0  0  0  0  0  0  0  0  0  0
    7.0200   -0.3950   29.1790 C   0  0  0  0  0  0  0  0  0  0  0  0
    6.4550    0.7610   28.5940 C   0  0  0  0  0  0  0  0  0  0  0  0
    6.4640    1.9520   29.2870 C   0  0  0  0  0  0  0  0  0  0  0  0
    5.8960    0.6910   27.3260 C   0  0  0  0  0  0  0  0  0  0  0  0
    5.3300    1.7740   26.7020 C   0  0  0  0  0  0  0  0  0  0  0  0
    5.9340    3.0150   26.5310 C   0  0  0  0  0  0  0  0  0  0  0  0
    5.3300    4.0960   25.8970 C   0  0  0  0  0  0  0  0  0  0  0  0
    3.9820    3.8710   25.3960 C   0  0  0  0  0  0  0  0  0  0  0  0
    3.3520    2.6640   25.5430 C   0  0  0  0  0  0  0  0  0  0  0  0
    4.0270    1.6360   26.1890 C   0  0  0  0  0  0  0  0  0  0  0  0
    5.8730   -0.5130   26.5940 C   0  0  0  0  0  0  0  0  0  0  0  0
    6.9090   -2.7390   23.3580 C   0  0  0  0  0  0  0  0  0  0  0  0
    7.6780   -3.2290   22.1640 C   0  0  0  0  0  0  0  0  0  0  0  0
  1  2  1  0
  2  3  2  0
  2  4  1  0
  4  5  1  0
  5  6  1  0
  6  7  1  0
  7  8  1  0
  8  9  2  0
  8 10  1  0
 10 11  1  0
 11 12  2  0
 12 13  1  0
 13 14  2  0
 14 15  1  0
 14 16  1  0
 16 17  1  0
 17 18  2  0
 18 19  1  0
 19 20  2  0
 20 21  1  0
 17 22  1  0
 21 22  2  0
 11 23  1  0
 16 23  2  0
  7 24  1  0
  4 25  1  0
 24 25  1  0
M  END
