piperidine-amides-11078-covalent
     RDKit          3D

 21 22  0  0  0  0  0  0  0  0999 V2000
    7.0500   -3.2960   19.2670 C   0  0  0  0  0  0  0  0  0  0  0  0
    6.3300   -4.0780   20.2790 C   0  0  0  0  0  0  0  0  0  0  0  0
    5.3180   -4.7070   19.9370 O   0  0  0  0  0  0  0  0  0  0  0  0
    6.7760   -4.1760   21.6090 N   0  0  0  0  0  0  0  0  0  0  0  0
    6.6900   -5.4290   22.3330 C   0  0  0  0  0  0  0  0  0  0  0  0
    6.0170   -5.1140   23.6430 C   0  0  0  0  0  0  0  0  0  0  0  0
    6.0260   -3.6460   23.9180 C   0  0  0  0  0  0  0  0  0  0  0  0
    5.6200   -3.3120   25.3060 C   0  0  0  0  0  0  0  0  0  0  0  0
    4.3980   -3.1270   25.5740 O   0  0  0  0  0  0  0  0  0  0  0  0
    6.5330   -3.1770   26.3690 N   0  0  0  0  0  0  0  0  0  0  0  0
    6.1930   -3.6080   27.7510 C   0  0  0  0  0  0  0  0  0  0  0  0
    5.8660   -5.0610   27.7980 C   0  0  0  0  0  0  0  0  0  0  0  0
    5.0180   -5.5080   28.9130 C   0  0  0  0  0  0  0  0  0  0  0  0
    3.6040   -4.9310   28.9750 C   0  0  0  0  0  0  0  0  0  0  0  0
    2.6540   -5.3500   30.1190 C   0  0  0  0  0  0  0  0  0  0  0  0
    3.2220   -6.3190   31.1010 C   0  0  0  0  0  0  0  0  0  0  0  0
    4.4860   -6.7220   30.8910 C   0  0  0  0  0  0  0  0  0  0  0  0
    5.4930   -7.5420   31.4080 C   0  0  0  0  0  0  0  0  0  0  0  0
    5.5050   -6.3950   29.8300 C   0  0  0  0  0  0  0  0  0  0  0  0
    7.3300   -2.9650   23.6150 C   0  0  0  0  0  0  0  0  0  0  0  0
    7.6570   -3.1550   22.1540 C   0  0  0  0  0  0  0  0  0  0  0  0
  1  2  1  0
  2  3  2  0
  2  4  1  0
  4  5  1  0
  5  6  1  0
  6  7  1  0
  7  8  1  0
  8  9  2  0
  8 10  1  0
 10 11  1  0
 11 12  1  0
 12 13  1  0
 13 14  2  0
 14 15  1  0
 15 16  2  0
 16 17  1  0
 17 18  1  0
 13 19  1  0
 17 19  2  0
  7 20  1  0
  4 21  1  0
 20 21  1  0
M  END
