piperidine-amides-25321-covalent
     RDKit          3D

 25 28  0  0  0  0  0  0  0  0999 V2000
    7.0190   -3.3510   19.4290 C   0  0  0  0  0  0  0  0  0  0  0  0
    6.3730   -4.2520   20.4180 C   0  0  0  0  0  0  0  0  0  0  0  0
    5.4250   -4.9210   20.0020 O   0  0  0  0  0  0  0  0  0  0  0  0
    6.8560   -4.3470   21.7340 N   0  0  0  0  0  0  0  0  0  0  0  0
    6.6150   -5.5210   22.5410 C   0  0  0  0  0  0  0  0  0  0  0  0
    5.7800   -5.1170   23.7230 C   0  0  0  0  0  0  0  0  0  0  0  0
    5.6340   -3.5950   23.6830 C   0  0  0  0  0  0  0  0  0  0  0  0
    4.8270   -3.0770   24.8430 C   0  0  0  0  0  0  0  0  0  0  0  0
    3.6240   -2.8750   24.6930 O   0  0  0  0  0  0  0  0  0  0  0  0
    5.3800   -2.8310   26.0990 N   0  0  0  0  0  0  0  0  0  0  0  0
    4.5170   -2.8410   27.2770 C   0  0  0  0  0  0  0  0  0  0  0  0
    5.1660   -3.8390   28.1790 C   0  0  2  0  0  0  0  0  0  0  0  0
    5.2070   -3.7540   29.5100 C   0  0  0  0  0  0  0  0  0  0  0  0
    6.0040   -2.8940   29.8600 O   0  0  0  0  0  0  0  0  0  0  0  0
    6.6520   -2.5300   28.7060 C   0  0  0  0  0  0  0  0  0  0  0  0
    6.5930   -3.6220   27.8390 C   0  0  1  0  0  0  0  0  0  0  0  0
    5.9770   -4.9920   28.0900 C   0  0  0  0  0  0  0  0  0  0  0  0
    4.7190   -5.1340   27.2460 C   0  0  0  0  0  0  0  0  0  0  0  0
    3.9090   -6.4220   27.3550 C   0  0  0  0  0  0  0  0  0  0  0  0
    4.4690   -7.4180   28.3100 C   0  0  0  0  0  0  0  0  0  0  0  0
    5.6980   -7.2310   29.0890 C   0  0  0  0  0  0  0  0  0  0  0  0
    6.5320   -6.0050   29.0240 C   0  0  0  0  0  0  0  0  0  0  0  0
    6.5820   -3.3660   26.4820 C   0  0  0  0  0  0  0  0  0  0  0  0
    7.0220   -2.9630   23.5810 C   0  0  0  0  0  0  0  0  0  0  0  0
    7.6170   -3.2580   22.3610 C   0  0  0  0  0  0  0  0  0  0  0  0
  1  2  1  0
  2  3  2  0
  2  4  1  0
  4  5  1  0
  5  6  1  0
  6  7  1  0
  7  8  1  0
  8  9  2  0
  8 10  1  0
 10 11  1  0
 12 11  1  6
 12 13  1  0
 13 14  1  0
 14 15  1  0
 12 16  1  0
 15 16  1  0
 16 17  1  6
 17 18  2  0
 18 19  1  0
 19 20  2  0
 20 21  1  0
 17 22  1  0
 21 22  2  0
 10 23  1  0
 16 23  1  0
  7 24  1  0
  4 25  1  0
 24 25  1  0
M  END
