piperidine-amides-24300-covalent
     RDKit          3D

 24 26  0  0  0  0  0  0  0  0999 V2000
    7.0680   -3.3380   19.3410 C   0  0  0  0  0  0  0  0  0  0  0  0
    6.3990   -4.2030   20.3220 C   0  0  0  0  0  0  0  0  0  0  0  0
    5.3750   -4.8390   19.9810 O   0  0  0  0  0  0  0  0  0  0  0  0
    6.9170   -4.3780   21.6180 N   0  0  0  0  0  0  0  0  0  0  0  0
    6.5400   -5.5460   22.3620 C   0  0  0  0  0  0  0  0  0  0  0  0
    5.5550   -5.0440   23.4210 C   0  0  0  0  0  0  0  0  0  0  0  0
    6.3110   -4.0310   24.2570 C   0  0  0  0  0  0  0  0  0  0  0  0
    5.3700   -3.4070   25.2250 C   0  0  0  0  0  0  0  0  0  0  0  0
    4.5770   -2.5620   24.7760 O   0  0  0  0  0  0  0  0  0  0  0  0
    5.3410   -3.7430   26.6090 N   0  0  0  0  0  0  0  0  0  0  0  0
    6.4420   -3.4340   27.3970 C   0  0  0  0  0  0  0  0  0  0  0  0
    6.6380   -4.6310   28.3220 C   0  0  0  0  0  0  0  0  0  0  0  0
    5.3920   -4.6860   29.0450 N   0  0  0  0  0  0  0  0  0  0  0  0
    5.1010   -5.6580   30.0830 C   0  0  0  0  0  0  0  0  0  0  0  0
    3.9340   -5.4820   30.7660 N   0  0  0  0  0  0  0  0  0  0  0  0
    3.7190   -6.4010   31.7270 C   0  0  0  0  0  0  0  0  0  0  0  0
    4.5860   -7.4420   32.0180 C   0  0  0  0  0  0  0  0  0  0  0  0
    4.2970   -8.3460   33.0250 F   0  0  0  0  0  0  0  0  0  0  0  0
    5.7420   -7.5750   31.3000 C   0  0  0  0  0  0  0  0  0  0  0  0
    5.9920   -6.6260   30.2890 N   0  0  0  0  0  0  0  0  0  0  0  0
    4.5650   -3.6560   28.9360 C   0  0  0  0  0  0  0  0  0  0  0  0
    4.2150   -3.4790   27.4710 C   0  0  0  0  0  0  0  0  0  0  0  0
    6.9440   -2.9260   23.4970 C   0  0  0  0  0  0  0  0  0  0  0  0
    7.6500   -3.3490   22.2870 C   0  0  0  0  0  0  0  0  0  0  0  0
  1  2  1  0
  2  3  2  0
  2  4  1  0
  4  5  1  0
  5  6  1  0
  6  7  1  0
  7  8  1  0
  8  9  2  0
  8 10  1  0
 10 11  1  0
 11 12  1  0
 12 13  1  0
 13 14  1  0
 14 15  2  0
 15 16  1  0
 16 17  2  0
 17 18  1  0
 17 19  1  0
 14 20  1  0
 19 20  2  0
 13 21  1  0
 10 22  1  0
 21 22  1  0
  7 23  1  0
  4 24  1  0
 23 24  1  0
M  END
