piperidine-amides-2196-covalent
     RDKit          3D

 28 30  0  0  0  0  0  0  0  0999 V2000
    7.0870   -3.2590   19.1880 C   0  0  0  0  0  0  0  0  0  0  0  0
    6.3280   -4.0160   20.2240 C   0  0  0  0  0  0  0  0  0  0  0  0
    5.2720   -4.5330   19.8740 O   0  0  0  0  0  0  0  0  0  0  0  0
    6.8350   -4.1600   21.5170 N   0  0  0  0  0  0  0  0  0  0  0  0
    6.6690   -5.3930   22.2440 C   0  0  0  0  0  0  0  0  0  0  0  0
    5.9630   -5.0970   23.5310 C   0  0  0  0  0  0  0  0  0  0  0  0
    6.1120   -3.6070   23.8360 C   0  0  0  0  0  0  0  0  0  0  0  0
    5.9160   -3.3790   25.2780 C   0  0  0  0  0  0  0  0  0  0  0  0
    4.7790   -3.1050   25.6930 O   0  0  0  0  0  0  0  0  0  0  0  0
    7.0120   -3.4550   26.1650 N   0  0  0  0  0  0  0  0  0  0  0  0
    7.2560   -4.6760   26.9080 C   0  0  1  0  0  0  0  0  0  0  0  0
    7.6050   -4.1720   28.2750 C   0  0  0  0  0  0  0  0  0  0  0  0
    7.3330   -2.9000   28.6830 C   0  0  0  0  0  0  0  0  0  0  0  0
    8.0010   -1.7470   28.6790 C   0  0  0  0  0  0  0  0  0  0  0  0
    7.1060   -0.7870   29.2910 N   0  0  0  0  0  0  0  0  0  0  0  0
    5.8620   -1.4450   29.6620 C   0  0  0  0  0  0  0  0  0  0  0  0
    4.6920   -0.7770   30.3270 C   0  0  0  0  0  0  0  0  0  0  0  0
    3.5430   -1.7080   30.5940 C   0  0  0  0  0  0  0  0  0  0  0  0
    3.6080   -3.1810   30.2050 C   0  0  0  0  0  0  0  0  0  0  0  0
    2.1260   -4.3580   30.5540 Br  0  0  0  0  0  0  0  0  0  0  0  0
    4.8700   -3.6630   29.5450 C   0  0  0  0  0  0  0  0  0  0  0  0
    6.0740   -2.8530   29.2290 C   0  0  0  0  0  0  0  0  0  0  0  0
    6.1200   -5.6560   27.1560 C   0  0  0  0  0  0  0  0  0  0  0  0
    5.3780   -6.0700   26.0550 O   0  0  0  0  0  0  0  0  0  0  0  0
    5.8220   -6.1030   28.3700 O   0  0  0  0  0  0  0  0  0  0  0  0
    5.0600   -7.2770   28.6000 C   0  0  0  0  0  0  0  0  0  0  0  0
    7.4980   -3.1020   23.4600 C   0  0  0  0  0  0  0  0  0  0  0  0
    7.6950   -3.1320   22.1000 C   0  0  0  0  0  0  0  0  0  0  0  0
  1  2  1  0
  2  3  2  0
  2  4  1  0
  4  5  1  0
  5  6  1  0
  6  7  1  0
  7  8  1  0
  8  9  2  0
  8 10  1  0
 10 11  1  0
 11 12  1  1
 12 13  1  0
 13 14  2  0
 14 15  1  0
 15 16  1  0
 16 17  1  0
 17 18  2  0
 18 19  1  0
 19 20  1  0
 19 21  2  0
 13 22  1  0
 16 22  2  0
 21 22  1  0
 11 23  1  0
 23 24  2  0
 23 25  1  0
 25 26  1  0
  7 27  1  0
  4 28  1  0
 27 28  1  0
M  END
