piperidine-amides-23856-covalent
     RDKit          3D

 24 25  0  0  0  0  0  0  0  0999 V2000
    7.0930   -3.2650   19.2820 C   0  0  0  0  0  0  0  0  0  0  0  0
    6.3430   -4.0390   20.2940 C   0  0  0  0  0  0  0  0  0  0  0  0
    5.2840   -4.5780   19.8980 O   0  0  0  0  0  0  0  0  0  0  0  0
    6.8020   -4.2190   21.6300 N   0  0  0  0  0  0  0  0  0  0  0  0
    7.6420   -3.2220   22.2130 C   0  0  0  0  0  0  0  0  0  0  0  0
    7.2400   -2.8870   23.5650 C   0  0  0  0  0  0  0  0  0  0  0  0
    6.0840   -3.7010   23.9540 C   0  0  0  0  0  0  0  0  0  0  0  0
    5.5200   -3.3770   25.3150 C   0  0  0  0  0  0  0  0  0  0  0  0
    4.2830   -3.2960   25.4220 O   0  0  0  0  0  0  0  0  0  0  0  0
    6.2990   -3.1550   26.4770 N   0  0  0  0  0  0  0  0  0  0  0  0
    6.2130   -3.8990   27.6920 C   0  0  0  0  0  0  0  0  0  0  0  0
    6.0540   -5.3610   27.6750 C   0  0  0  0  0  0  0  0  0  0  0  0
    4.9890   -6.0690   28.1200 N   0  0  0  0  0  0  0  0  0  0  0  0
    4.2250   -7.0110   27.3370 C   0  0  0  0  0  0  0  0  0  0  0  0
    4.2540   -4.8400   28.2450 C   0  0  0  0  0  0  0  0  0  0  0  0
    6.7450   -1.7680   26.6830 C   0  0  0  0  0  0  0  0  0  0  0  0
    5.6030   -0.8610   26.3490 C   0  0  0  0  0  0  0  0  0  0  0  0
    5.9580    0.0850   25.2100 C   0  0  0  0  0  0  0  0  0  0  0  0
    5.0440    1.1240   24.6350 C   0  0  0  0  0  0  0  0  0  0  0  0
    3.8080    1.1940   25.2010 N   0  0  0  0  0  0  0  0  0  0  0  0
    3.3780    0.2940   26.3300 C   0  0  0  0  0  0  0  0  0  0  0  0
    4.2160   -0.8160   27.0190 C   0  0  0  0  0  0  0  0  0  0  0  0
    6.4000   -5.1500   23.7410 C   0  0  0  0  0  0  0  0  0  0  0  0
    6.4960   -5.4440   22.3600 C   0  0  0  0  0  0  0  0  0  0  0  0
  1  2  1  0
  2  3  2  0
  2  4  1  0
  4  5  1  0
  5  6  1  0
  6  7  1  0
  7  8  1  0
  8  9  2  0
  8 10  1  0
 10 11  1  0
 11 12  1  0
 12 13  1  0
 13 14  1  0
 13 15  1  0
 10 16  1  0
 16 17  1  0
 17 18  2  0
 18 19  1  0
 19 20  2  0
 20 21  1  0
 17 22  1  0
 21 22  2  0
  7 23  1  0
  4 24  1  0
 23 24  1  0
M  END
