piperidine-amides-28781-covalent
     RDKit          3D

 25 27  0  0  0  0  0  0  0  0999 V2000
    7.1020   -3.3720   19.3700 C   0  0  0  0  0  0  0  0  0  0  0  0
    6.4010   -4.2080   20.3380 C   0  0  0  0  0  0  0  0  0  0  0  0
    5.3660   -4.7960   19.9690 O   0  0  0  0  0  0  0  0  0  0  0  0
    6.9360   -4.3770   21.6340 N   0  0  0  0  0  0  0  0  0  0  0  0
    6.5910   -5.5610   22.3770 C   0  0  0  0  0  0  0  0  0  0  0  0
    6.3020   -5.2130   23.8140 C   0  0  0  0  0  0  0  0  0  0  0  0
    6.1480   -3.7080   23.8750 C   0  0  0  0  0  0  0  0  0  0  0  0
    5.6120   -3.2010   25.1720 C   0  0  0  0  0  0  0  0  0  0  0  0
    5.1250   -2.0800   25.1340 O   0  0  0  0  0  0  0  0  0  0  0  0
    5.6440   -3.9720   26.3130 N   0  0  0  0  0  0  0  0  0  0  0  0
    6.3860   -3.5000   27.4270 C   0  0  0  0  0  0  0  0  0  0  0  0
    6.8580   -4.4700   28.3070 C   0  0  0  0  0  0  0  0  0  0  0  0
    5.9330   -4.7240   29.1490 C   0  0  0  0  0  0  0  0  0  0  0  0
    4.8040   -4.9830   28.5110 C   0  0  0  0  0  0  0  0  0  0  0  0
    3.7770   -5.6610   29.3450 C   0  0  0  0  0  0  0  0  0  0  0  0
    2.4060   -6.0430   28.7650 C   0  0  0  0  0  0  0  0  0  0  0  0
    1.2070   -6.8460   29.7500 S   0  0  0  0  0  0  0  0  0  0  0  0
    1.8140   -8.4920   30.0850 C   0  0  0  0  0  0  0  0  0  0  0  0
   -0.0980   -6.9700   29.0000 O   0  0  0  0  0  0  0  0  0  0  0  0
    0.9300   -6.0890   31.0080 O   0  0  0  0  0  0  0  0  0  0  0  0
    2.2500   -5.6530   27.3130 C   0  0  0  0  0  0  0  0  0  0  0  0
    3.4320   -4.9430   26.5830 C   0  0  0  0  0  0  0  0  0  0  0  0
    4.6480   -4.6320   27.1720 C   0  0  0  0  0  0  0  0  0  0  0  0
    7.4880   -3.1120   23.6150 C   0  0  0  0  0  0  0  0  0  0  0  0
    7.7410   -3.2890   22.1600 C   0  0  0  0  0  0  0  0  0  0  0  0
  1  2  1  0
  2  3  2  0
  2  4  1  0
  4  5  1  0
  5  6  1  0
  6  7  1  0
  7  8  1  0
  8  9  2  0
  8 10  1  0
 10 11  1  0
 11 12  1  0
 12 13  1  0
 13 14  1  0
 14 15  2  0
 15 16  1  0
 16 17  1  0
 17 18  1  0
 17 19  2  0
 17 20  2  0
 16 21  2  0
 21 22  1  0
 10 23  1  0
 14 23  1  0
 22 23  2  0
  7 24  1  0
  4 25  1  0
 24 25  1  0
M  END
