piperidine-amides-29864-covalent
     RDKit          3D

 27 29  0  0  0  0  0  0  0  0999 V2000
    7.0510   -3.3660   19.2890 C   0  0  0  0  0  0  0  0  0  0  0  0
    6.3810   -4.2030   20.2790 C   0  0  0  0  0  0  0  0  0  0  0  0
    5.3540   -4.8020   19.9710 O   0  0  0  0  0  0  0  0  0  0  0  0
    6.9470   -4.3790   21.5870 N   0  0  0  0  0  0  0  0  0  0  0  0
    7.6830   -3.3130   22.2090 C   0  0  0  0  0  0  0  0  0  0  0  0
    6.8730   -2.7250   23.3190 C   0  0  0  0  0  0  0  0  0  0  0  0
    6.5100   -3.8570   24.2590 C   0  0  0  0  0  0  0  0  0  0  0  0
    5.6350   -3.3180   25.3450 C   0  0  0  0  0  0  0  0  0  0  0  0
    4.7900   -2.4410   25.1080 O   0  0  0  0  0  0  0  0  0  0  0  0
    5.7100   -3.7930   26.6770 N   0  0  0  0  0  0  0  0  0  0  0  0
    4.4730   -4.2850   27.2210 C   0  0  0  0  0  0  0  0  0  0  0  0
    4.5890   -4.4070   28.7270 C   0  0  0  0  0  0  0  0  0  0  0  0
    5.7530   -4.6420   29.3320 N   0  0  0  0  0  0  0  0  0  0  0  0
    5.8110   -5.9230   29.7160 C   0  0  0  0  0  0  0  0  0  0  0  0
    6.6420   -6.7840   29.3580 O   0  0  0  0  0  0  0  0  0  0  0  0
    4.7930   -6.0840   30.5690 N   0  0  0  0  0  0  0  0  0  0  0  0
    4.0350   -7.2850   30.8240 C   0  0  0  0  0  0  0  0  0  0  0  0
    4.1450   -7.8870   32.0580 C   0  0  0  0  0  0  0  0  0  0  0  0
    3.0150   -8.5110   32.7370 C   0  0  0  0  0  0  0  0  0  0  0  0
    3.1230   -9.1170   33.9670 C   0  0  0  0  0  0  0  0  0  0  0  0
    4.3570   -9.1320   34.5770 C   0  0  0  0  0  0  0  0  0  0  0  0
    5.4810   -8.5570   33.9920 C   0  0  0  0  0  0  0  0  0  0  0  0
    5.3760   -7.9060   32.6810 C   0  0  0  0  0  0  0  0  0  0  0  0
    6.7950   -4.3190   28.4740 C   0  0  0  0  0  0  0  0  0  0  0  0
    6.4330   -3.1880   27.7480 C   0  0  0  0  0  0  0  0  0  0  0  0
    5.7670   -4.9670   23.5460 C   0  0  0  0  0  0  0  0  0  0  0  0
    6.6150   -5.5220   22.3930 C   0  0  0  0  0  0  0  0  0  0  0  0
  1  2  1  0
  2  3  2  0
  2  4  1  0
  4  5  1  0
  5  6  1  0
  6  7  1  0
  7  8  1  0
  8  9  2  0
  8 10  1  0
 10 11  1  0
 11 12  1  0
 12 13  1  0
 13 14  1  0
 14 15  2  0
 14 16  1  0
 16 17  1  0
 17 18  1  0
 18 19  2  0
 19 20  1  0
 20 21  2  0
 21 22  1  0
 18 23  1  0
 22 23  2  0
 13 24  1  0
 10 25  1  0
 24 25  1  0
  7 26  1  0
  4 27  1  0
 26 27  1  0
M  END
