piperidine-amides-27524-covalent
     RDKit          3D

 26 29  0  0  0  0  0  0  0  0999 V2000
    7.1190   -3.2760   19.2020 C   0  0  0  0  0  0  0  0  0  0  0  0
    6.3740   -4.0360   20.2110 C   0  0  0  0  0  0  0  0  0  0  0  0
    5.2590   -4.4950   19.8600 O   0  0  0  0  0  0  0  0  0  0  0  0
    6.9220   -4.2770   21.4700 N   0  0  0  0  0  0  0  0  0  0  0  0
    6.5820   -5.4650   22.2010 C   0  0  0  0  0  0  0  0  0  0  0  0
    5.8160   -5.0240   23.4110 C   0  0  0  0  0  0  0  0  0  0  0  0
    6.5500   -3.9540   24.1800 C   0  0  0  0  0  0  0  0  0  0  0  0
    5.7000   -3.5260   25.3030 C   0  0  0  0  0  0  0  0  0  0  0  0
    4.9480   -2.5470   25.1190 O   0  0  0  0  0  0  0  0  0  0  0  0
    5.6630   -4.1570   26.5600 N   0  0  0  0  0  0  0  0  0  0  0  0
    4.4100   -4.6130   27.0370 C   0  0  0  0  0  0  0  0  0  0  0  0
    4.7550   -3.6520   28.1130 C   0  0  0  0  0  0  0  0  0  0  0  0
    4.7420   -4.0390   29.4430 C   0  0  0  0  0  0  0  0  0  0  0  0
    4.0280   -3.1150   30.2000 C   0  0  0  0  0  0  0  0  0  0  0  0
    3.7290   -2.1810   29.3040 N   0  0  0  0  0  0  0  0  0  0  0  0
    3.8430   -0.8850   29.5860 C   0  0  0  0  0  0  0  0  0  0  0  0
    5.0900   -0.6160   30.1460 C   0  0  0  0  0  0  0  0  0  0  0  0
    6.2700   -1.0890   29.5220 C   0  0  0  0  0  0  0  0  0  0  0  0
    7.7060   -0.8870   29.9940 C   0  0  0  0  0  0  0  0  0  0  0  0
    7.7880   -0.0910   31.2640 C   0  0  0  0  0  0  0  0  0  0  0  0
    6.5860    0.4200   31.9470 C   0  0  0  0  0  0  0  0  0  0  0  0
    5.1840    0.1960   31.4450 C   0  0  0  0  0  0  0  0  0  0  0  0
    4.1100   -2.5710   28.0120 C   0  0  0  0  0  0  0  0  0  0  0  0
    6.0330   -3.2990   27.7080 C   0  0  0  0  0  0  0  0  0  0  0  0
    6.8570   -2.7590   23.3290 C   0  0  0  0  0  0  0  0  0  0  0  0
    7.6750   -3.2290   22.1310 C   0  0  0  0  0  0  0  0  0  0  0  0
  1  2  1  0
  2  3  2  0
  2  4  1  0
  4  5  1  0
  5  6  1  0
  6  7  1  0
  7  8  1  0
  8  9  2  0
  8 10  1  0
 10 11  1  0
 12 11  1  0
 12 13  1  0
 13 14  1  0
 14 15  1  0
 15 16  1  0
 16 17  1  0
 17 18  2  0
 18 19  1  0
 19 20  2  0
 20 21  1  0
 17 22  1  0
 21 22  2  0
 12 23  1  0
 15 23  1  0
 10 24  1  0
 12 24  1  0
  7 25  1  0
  4 26  1  0
 25 26  1  0
M  END
