piperidine-amides-30446-covalent
     RDKit          3D

 27 28  0  0  0  0  0  0  0  0999 V2000
    7.1370   -3.3190   19.2480 C   0  0  0  0  0  0  0  0  0  0  0  0
    6.3600   -4.0560   20.2430 C   0  0  0  0  0  0  0  0  0  0  0  0
    5.3020   -4.6130   19.9080 O   0  0  0  0  0  0  0  0  0  0  0  0
    6.8280   -4.1860   21.5490 N   0  0  0  0  0  0  0  0  0  0  0  0
    7.7680   -3.2410   22.1130 C   0  0  0  0  0  0  0  0  0  0  0  0
    7.1230   -2.7250   23.3510 C   0  0  0  0  0  0  0  0  0  0  0  0
    6.6610   -3.8420   24.2320 C   0  0  0  0  0  0  0  0  0  0  0  0
    5.9100   -3.3040   25.3820 C   0  0  0  0  0  0  0  0  0  0  0  0
    4.6540   -3.1140   25.3110 O   0  0  0  0  0  0  0  0  0  0  0  0
    6.5570   -2.9730   26.5930 N   0  0  0  0  0  0  0  0  0  0  0  0
    7.2810   -4.0460   27.3150 C   0  0  0  0  0  0  0  0  0  0  0  0
    7.1900   -5.3190   26.5720 C   0  0  0  0  0  0  0  0  0  0  0  0
    6.1320   -6.0000   26.5650 O   0  0  0  0  0  0  0  0  0  0  0  0
    8.2620   -5.8080   25.8560 O   0  0  0  0  0  0  0  0  0  0  0  0
    9.5430   -5.9990   26.4220 C   0  0  0  0  0  0  0  0  0  0  0  0
    6.4290   -1.6500   27.1490 C   0  0  0  0  0  0  0  0  0  0  0  0
    5.4360   -0.7680   26.5460 N   0  0  0  0  0  0  0  0  0  0  0  0
    5.4580    0.7290   26.7690 C   0  0  0  0  0  0  0  0  0  0  0  0
    5.9810    0.9790   28.1290 C   0  0  0  0  0  0  0  0  0  0  0  0
    6.0500    1.8860   29.1580 C   0  0  0  0  0  0  0  0  0  0  0  0
    6.8600    0.0700   28.8750 C   0  0  0  0  0  0  0  0  0  0  0  0
    7.1080   -1.2370   28.2470 C   0  0  0  0  0  0  0  0  0  0  0  0
    7.9780   -2.1620   28.7760 N   0  0  0  0  0  0  0  0  0  0  0  0
    7.7180   -3.3460   28.8140 O   0  0  0  0  0  0  0  0  0  0  0  0
    8.8290   -1.6600   29.7310 O   0  0  0  0  0  0  0  0  0  0  0  0
    5.8170   -4.8970   23.5530 C   0  0  0  0  0  0  0  0  0  0  0  0
    6.5380   -5.3710   22.3170 C   0  0  0  0  0  0  0  0  0  0  0  0
  1  2  1  0
  2  3  2  0
  2  4  1  0
  4  5  1  0
  5  6  1  0
  6  7  1  0
  7  8  1  0
  8  9  2  0
  8 10  1  0
 10 11  1  0
 11 12  1  0
 12 13  2  0
 12 14  1  0
 14 15  1  0
 10 16  1  0
 16 17  2  0
 17 18  1  0
 18 19  2  0
 19 20  1  0
 19 21  1  0
 16 22  1  0
 21 22  2  0
 22 23  1  0
 23 24  2  0
 23 25  1  0
  7 26  1  0
  4 27  1  0
 26 27  1  0
M  CHG  2  23   1  25  -1
M  END
