piperidine-amides-13426-covalent
     RDKit          3D

 19 20  0  0  0  0  0  0  0  0999 V2000
    7.1010   -3.3020   19.3030 C   0  0  0  0  0  0  0  0  0  0  0  0
    6.2990   -4.0560   20.3050 C   0  0  0  0  0  0  0  0  0  0  0  0
    5.2850   -4.6660   19.9230 O   0  0  0  0  0  0  0  0  0  0  0  0
    6.7340   -4.0970   21.6440 N   0  0  0  0  0  0  0  0  0  0  0  0
    7.6670   -3.1080   22.1600 C   0  0  0  0  0  0  0  0  0  0  0  0
    7.5150   -3.0760   23.6770 C   0  0  0  0  0  0  0  0  0  0  0  0
    6.1460   -3.5710   23.9560 C   0  0  0  0  0  0  0  0  0  0  0  0
    5.6250   -3.2750   25.3130 C   0  0  0  0  0  0  0  0  0  0  0  0
    4.4140   -3.0440   25.3780 O   0  0  0  0  0  0  0  0  0  0  0  0
    6.4560   -3.2570   26.4430 N   0  0  0  0  0  0  0  0  0  0  0  0
    6.0870   -3.7150   27.7410 C   0  0  1  0  0  0  0  0  0  0  0  0
    6.6740   -4.7360   28.4620 C   0  0  0  0  0  0  0  0  0  0  0  0
    6.0870   -2.5240   28.7020 C   0  0  0  0  0  0  0  0  0  0  0  0
    5.0530   -1.9770   29.5520 N   0  0  0  0  0  0  0  0  0  0  0  0
    5.2060   -0.9260   30.3420 N   0  0  0  0  0  0  0  0  0  0  0  0
    6.4350   -0.4250   30.2640 C   0  0  0  0  0  0  0  0  0  0  0  0
    7.3270   -1.4340   29.0950 S   0  0  0  0  0  0  0  0  0  0  0  0
    6.0120   -5.0690   23.7440 C   0  0  0  0  0  0  0  0  0  0  0  0
    6.6200   -5.3550   22.3610 C   0  0  0  0  0  0  0  0  0  0  0  0
  1  2  1  0
  2  3  2  0
  2  4  1  0
  4  5  1  0
  5  6  1  0
  6  7  1  0
  7  8  1  0
  8  9  2  0
  8 10  1  0
 10 11  1  0
 11 12  1  1
 11 13  1  0
 13 14  2  0
 14 15  1  0
 15 16  2  0
 13 17  1  0
 16 17  1  0
  7 18  1  0
  4 19  1  0
 18 19  1  0
M  END
