piperidine-amides-13353-covalent
     RDKit          3D

 21 23  0  0  0  0  0  0  0  0999 V2000
    7.0920   -3.3170   19.1860 C   0  0  0  0  0  0  0  0  0  0  0  0
    6.3680   -4.0880   20.2220 C   0  0  0  0  0  0  0  0  0  0  0  0
    5.2790   -4.5880   19.8920 O   0  0  0  0  0  0  0  0  0  0  0  0
    6.9280   -4.2900   21.4830 N   0  0  0  0  0  0  0  0  0  0  0  0
    6.4980   -5.3850   22.2920 C   0  0  0  0  0  0  0  0  0  0  0  0
    5.9700   -4.9830   23.6010 C   0  0  0  0  0  0  0  0  0  0  0  0
    6.6700   -3.8250   24.1900 C   0  0  0  0  0  0  0  0  0  0  0  0
    5.9820   -3.2910   25.3740 C   0  0  0  0  0  0  0  0  0  0  0  0
    4.7610   -3.5040   25.5150 O   0  0  0  0  0  0  0  0  0  0  0  0
    6.7040   -2.5410   26.3100 N   0  0  0  0  0  0  0  0  0  0  0  0
    6.0170   -1.6030   27.1970 C   0  0  2  0  0  0  0  0  0  0  0  0
    5.6010   -0.3250   26.6290 C   0  0  0  0  0  0  0  0  0  0  0  0
    5.5960    0.6280   27.7320 C   0  0  2  0  0  0  0  0  0  0  0  0
    6.1240    1.8640   27.4480 C   0  0  0  0  0  0  0  0  0  0  0  0
    6.5120    2.7290   28.4490 C   0  0  0  0  0  0  0  0  0  0  0  0
    6.9490    2.1480   29.6040 C   0  0  0  0  0  0  0  0  0  0  0  0
    6.8190    0.7960   29.7710 C   0  0  0  0  0  0  0  0  0  0  0  0
    6.1320    0.0260   28.8940 C   0  0  2  0  0  0  0  0  0  0  0  0
    6.6890   -1.1890   28.4260 C   0  0  0  0  0  0  0  0  0  0  0  0
    6.9880   -2.7270   23.2700 C   0  0  0  0  0  0  0  0  0  0  0  0
    7.7600   -3.2700   22.1180 C   0  0  0  0  0  0  0  0  0  0  0  0
  1  2  1  0
  2  3  2  0
  2  4  1  0
  4  5  1  0
  5  6  1  0
  6  7  1  0
  7  8  1  0
  8  9  2  0
  8 10  1  0
 11 10  1  6
 11 12  1  0
 13 12  1  6
 13 14  1  0
 14 15  1  0
 15 16  1  0
 16 17  1  0
 13 18  1  0
 18 17  1  6
 11 19  1  0
 18 19  1  0
  7 20  1  0
  4 21  1  0
 20 21  1  0
M  END
