piperidine-amides-27930-covalent
     RDKit          3D

 26 29  0  0  0  0  0  0  0  0999 V2000
    7.0440   -3.3580   19.3600 C   0  0  0  0  0  0  0  0  0  0  0  0
    6.3930   -4.2250   20.3680 C   0  0  0  0  0  0  0  0  0  0  0  0
    5.3980   -4.8740   19.9860 O   0  0  0  0  0  0  0  0  0  0  0  0
    6.9190   -4.3280   21.6720 N   0  0  0  0  0  0  0  0  0  0  0  0
    6.5750   -5.4230   22.5120 C   0  0  0  0  0  0  0  0  0  0  0  0
    6.1290   -5.0570   23.8780 C   0  0  0  0  0  0  0  0  0  0  0  0
    6.5140   -3.7040   24.3830 C   0  0  0  0  0  0  0  0  0  0  0  0
    5.5120   -3.1980   25.3790 C   0  0  0  0  0  0  0  0  0  0  0  0
    4.6950   -2.3700   24.9520 O   0  0  0  0  0  0  0  0  0  0  0  0
    5.4030   -3.5920   26.7510 N   0  0  0  0  0  0  0  0  0  0  0  0
    4.1110   -3.5050   27.4160 C   0  0  0  0  0  0  0  0  0  0  0  0
    4.3920   -3.8580   28.8180 C   0  0  0  0  0  0  0  0  0  0  0  0
    5.4890   -4.6990   29.0030 N   0  0  0  0  0  0  0  0  0  0  0  0
    6.8420   -4.4400   28.3110 C   0  0  0  0  0  0  0  0  0  0  0  0
    6.4240   -5.3310   29.0870 C   0  0  0  0  0  0  0  0  0  0  0  0
    6.6790   -6.3980   29.7270 N   0  0  0  0  0  0  0  0  0  0  0  0
    5.4610   -5.9690   29.8980 C   0  0  0  0  0  0  0  0  0  0  0  0
    4.3680   -6.3830   30.6050 C   0  0  0  0  0  0  0  0  0  0  0  0
    3.6780   -7.3080   29.8800 C   0  0  0  0  0  0  0  0  0  0  0  0
    2.5010   -7.6700   30.4810 C   0  0  0  0  0  0  0  0  0  0  0  0
    2.6950   -8.0500   31.8180 C   0  0  0  0  0  0  0  0  0  0  0  0
    3.3810   -6.9940   32.5970 C   0  0  0  0  0  0  0  0  0  0  0  0
    4.6770   -6.9080   31.8310 C   0  0  0  0  0  0  0  0  0  0  0  0
    6.4890   -3.2520   27.6180 C   0  0  0  0  0  0  0  0  0  0  0  0
    6.8210   -2.7040   23.3600 C   0  0  0  0  0  0  0  0  0  0  0  0
    7.6940   -3.2580   22.2630 C   0  0  0  0  0  0  0  0  0  0  0  0
  1  2  1  0
  2  3  2  0
  2  4  1  0
  4  5  1  0
  5  6  1  0
  6  7  1  0
  7  8  1  0
  8  9  2  0
  8 10  1  0
 10 11  1  0
 11 12  1  0
 12 13  1  0
 13 14  1  0
 14 15  2  0
 15 16  1  0
 13 17  1  0
 16 17  2  0
 17 18  1  0
 18 19  1  0
 19 20  1  0
 20 21  1  0
 21 22  1  0
 18 23  1  0
 22 23  1  0
 10 24  1  0
 14 24  1  0
  7 25  1  0
  4 26  1  0
 25 26  1  0
M  END
