piperidine-amides-30419-covalent
     RDKit          3D

 26 28  0  0  0  0  0  0  0  0999 V2000
    7.0520   -3.3300   19.2770 C   0  0  0  0  0  0  0  0  0  0  0  0
    6.3700   -4.1470   20.2790 C   0  0  0  0  0  0  0  0  0  0  0  0
    5.3590   -4.7930   19.9590 O   0  0  0  0  0  0  0  0  0  0  0  0
    6.8580   -4.2510   21.5840 N   0  0  0  0  0  0  0  0  0  0  0  0
    6.6360   -5.4320   22.3910 C   0  0  0  0  0  0  0  0  0  0  0  0
    5.9810   -4.9500   23.6650 C   0  0  0  0  0  0  0  0  0  0  0  0
    6.7320   -3.7980   24.2710 C   0  0  0  0  0  0  0  0  0  0  0  0
    6.0200   -3.1980   25.4360 C   0  0  0  0  0  0  0  0  0  0  0  0
    5.5430   -2.0350   25.3640 O   0  0  0  0  0  0  0  0  0  0  0  0
    5.7680   -3.8840   26.6460 N   0  0  0  0  0  0  0  0  0  0  0  0
    4.4520   -4.4260   26.8170 C   0  0  0  0  0  0  0  0  0  0  0  0
    4.5750   -5.3080   27.9790 C   0  0  0  0  0  0  0  0  0  0  0  0
    5.2060   -4.7550   29.1770 C   0  0  0  0  0  0  0  0  0  0  0  0
    5.0770   -5.7280   30.3140 C   0  0  0  0  0  0  0  0  0  0  0  0
    4.2150   -5.6690   31.4670 N   0  0  0  0  0  0  0  0  0  0  0  0
    4.5530   -6.8720   32.2350 C   0  0  0  0  0  0  0  0  0  0  0  0
    3.9340   -7.2550   33.5210 C   0  0  0  0  0  0  0  0  0  0  0  0
    3.0260   -8.2860   33.6220 C   0  0  0  0  0  0  0  0  0  0  0  0
    4.5430   -8.4870   34.1770 C   0  0  0  0  0  0  0  0  0  0  0  0
    3.1780   -6.3750   34.5160 C   0  0  0  0  0  0  0  0  0  0  0  0
    5.5980   -7.8070   31.7090 C   0  0  0  0  0  0  0  0  0  0  0  0
    6.1270   -7.1590   30.2400 S   0  0  0  0  0  0  0  0  0  0  0  0
    6.5250   -4.5120   28.5200 C   0  0  0  0  0  0  0  0  0  0  0  0
    6.3390   -3.4790   27.8920 C   0  0  0  0  0  0  0  0  0  0  0  0
    7.0960   -2.7310   23.3360 C   0  0  0  0  0  0  0  0  0  0  0  0
    7.6240   -3.1870   22.1610 C   0  0  0  0  0  0  0  0  0  0  0  0
  1  2  1  0
  2  3  2  0
  2  4  1  0
  4  5  1  0
  5  6  1  0
  6  7  1  0
  7  8  1  0
  8  9  2  0
  8 10  1  0
 10 11  1  0
 11 12  1  0
 12 13  1  0
 13 14  1  0
 14 15  2  0
 15 16  1  0
 16 17  1  0
 17 18  1  0
 17 19  1  0
 17 20  1  0
 16 21  2  0
 14 22  1  0
 21 22  1  0
 13 23  1  0
 10 24  1  0
 23 24  1  0
  7 25  1  0
  4 26  1  0
 25 26  1  0
M  END
