piperidine-amides-31189-covalent
     RDKit          3D

 27 28  0  0  0  0  0  0  0  0999 V2000
    7.0500   -3.3510   19.3190 C   0  0  0  0  0  0  0  0  0  0  0  0
    6.3880   -4.1870   20.3220 C   0  0  0  0  0  0  0  0  0  0  0  0
    5.3920   -4.8520   19.9860 O   0  0  0  0  0  0  0  0  0  0  0  0
    6.8940   -4.2770   21.6340 N   0  0  0  0  0  0  0  0  0  0  0  0
    7.6910   -3.1980   22.2010 C   0  0  0  0  0  0  0  0  0  0  0  0
    7.4640   -3.1990   23.6910 C   0  0  0  0  0  0  0  0  0  0  0  0
    6.1510   -3.8370   24.0270 C   0  0  0  0  0  0  0  0  0  0  0  0
    5.5610   -3.4380   25.3320 C   0  0  0  0  0  0  0  0  0  0  0  0
    4.5000   -2.7530   25.3220 O   0  0  0  0  0  0  0  0  0  0  0  0
    6.0470   -3.7540   26.6200 N   0  0  0  0  0  0  0  0  0  0  0  0
    6.4970   -2.6140   27.4120 C   0  0  0  0  0  0  0  0  0  0  0  0
    6.7730   -3.1280   28.7620 C   0  0  0  0  0  0  0  0  0  0  0  0
    5.8630   -3.7590   29.3100 O   0  0  0  0  0  0  0  0  0  0  0  0
    5.6290   -4.9370   28.7370 C   0  0  1  0  0  0  0  0  0  0  0  0
    4.8080   -6.0180   29.3990 C   0  0  2  0  0  0  0  0  0  0  0  0
    5.0000   -7.2040   28.4730 C   0  0  0  0  0  0  0  0  0  0  0  0
    3.4790   -5.5020   29.5460 N   0  0  0  0  0  0  0  0  0  0  0  0
    2.6700   -5.7590   30.7250 C   0  0  0  0  0  0  0  0  0  0  0  0
    2.8420   -6.6520   31.5840 O   0  0  0  0  0  0  0  0  0  0  0  0
    1.6370   -4.8580   30.7950 O   0  0  0  0  0  0  0  0  0  0  0  0
    0.8750   -5.1850   31.8920 C   0  0  0  0  0  0  0  0  0  0  0  0
    0.8830   -4.3130   32.9880 C   0  0  0  0  0  0  0  0  0  0  0  0
   -0.2890   -4.1810   32.0030 C   0  0  0  0  0  0  0  0  0  0  0  0
   -0.5770   -5.6350   31.5080 C   0  0  0  0  0  0  0  0  0  0  0  0
    5.2350   -4.7500   27.3100 C   0  0  0  0  0  0  0  0  0  0  0  0
    6.2590   -5.2900   23.7560 C   0  0  0  0  0  0  0  0  0  0  0  0
    6.6340   -5.5040   22.3400 C   0  0  0  0  0  0  0  0  0  0  0  0
  1  2  1  0
  2  3  2  0
  2  4  1  0
  4  5  1  0
  5  6  1  0
  6  7  1  0
  7  8  1  0
  8  9  2  0
  8 10  1  0
 10 11  1  0
 11 12  1  0
 12 13  1  0
 13 14  1  0
 14 15  1  0
 15 16  1  6
 15 17  1  0
 17 18  1  0
 18 19  2  0
 18 20  1  0
 21 20  1  0
 21 22  1  0
 21 23  1  0
 21 24  1  0
 10 25  1  0
 14 25  1  6
  7 26  1  0
  4 27  1  0
 26 27  1  0
M  END
