piperidine-amides-9818-covalent
     RDKit          3D

 27 29  0  0  0  0  0  0  0  0999 V2000
    7.1150   -3.2960   19.2460 C   0  0  0  0  0  0  0  0  0  0  0  0
    6.3330   -4.0120   20.2590 C   0  0  0  0  0  0  0  0  0  0  0  0
    5.2610   -4.5500   19.8780 O   0  0  0  0  0  0  0  0  0  0  0  0
    6.8090   -4.1090   21.5630 N   0  0  0  0  0  0  0  0  0  0  0  0
    7.7420   -3.1280   22.0670 C   0  0  0  0  0  0  0  0  0  0  0  0
    7.5560   -3.0040   23.5420 C   0  0  0  0  0  0  0  0  0  0  0  0
    6.1710   -3.4180   23.9440 C   0  0  0  0  0  0  0  0  0  0  0  0
    5.9490   -3.1070   25.3690 C   0  0  0  0  0  0  0  0  0  0  0  0
    4.7700   -3.1150   25.7930 O   0  0  0  0  0  0  0  0  0  0  0  0
    7.0120   -2.7890   26.2440 N   0  0  0  0  0  0  0  0  0  0  0  0
    6.8020   -2.6920   27.6640 C   0  0  0  0  0  0  0  0  0  0  0  0
    6.3820   -4.0110   28.2720 C   0  0  0  0  0  0  0  0  0  0  0  0
    5.2270   -4.4340   28.8750 C   0  0  0  0  0  0  0  0  0  0  0  0
    5.1080   -5.7240   29.3440 C   0  0  0  0  0  0  0  0  0  0  0  0
    3.9310   -5.9520   29.8890 O   0  0  0  0  0  0  0  0  0  0  0  0
    3.9830   -6.7610   30.9160 C   0  0  0  0  0  0  0  0  0  0  0  0
    5.1270   -6.9450   31.6930 C   0  0  0  0  0  0  0  0  0  0  0  0
    5.2020   -7.7950   32.7940 C   0  0  0  0  0  0  0  0  0  0  0  0
    4.0860   -8.6580   33.3430 C   0  0  0  0  0  0  0  0  0  0  0  0
    4.1690   -9.4810   34.4170 F   0  0  0  0  0  0  0  0  0  0  0  0
    2.8940   -8.4000   32.4420 C   0  0  0  0  0  0  0  0  0  0  0  0
    2.8580   -7.4720   31.2640 C   0  0  0  0  0  0  0  0  0  0  0  0
    6.1750   -6.5960   29.1990 C   0  0  0  0  0  0  0  0  0  0  0  0
    7.3510   -6.1810   28.5930 C   0  0  0  0  0  0  0  0  0  0  0  0
    7.4920   -4.9420   28.1310 N   0  0  0  0  0  0  0  0  0  0  0  0
    6.0060   -4.9100   23.6800 C   0  0  0  0  0  0  0  0  0  0  0  0
    6.6430   -5.3160   22.3540 C   0  0  0  0  0  0  0  0  0  0  0  0
  1  2  1  0
  2  3  2  0
  2  4  1  0
  4  5  1  0
  5  6  1  0
  6  7  1  0
  7  8  1  0
  8  9  2  0
  8 10  1  0
 10 11  1  0
 11 12  1  0
 12 13  2  0
 13 14  1  0
 14 15  1  0
 15 16  1  0
 16 17  2  0
 17 18  1  0
 18 19  2  0
 19 20  1  0
 19 21  1  0
 16 22  1  0
 21 22  2  0
 14 23  2  0
 23 24  1  0
 12 25  1  0
 24 25  2  0
  7 26  1  0
  4 27  1  0
 26 27  1  0
M  END
