piperidine-amides-32266-covalent
     RDKit          3D

 28 30  0  0  0  0  0  0  0  0999 V2000
    7.1410   -3.3320   19.2680 C   0  0  0  0  0  0  0  0  0  0  0  0
    6.4050   -4.1580   20.2530 C   0  0  0  0  0  0  0  0  0  0  0  0
    5.3210   -4.6710   19.9340 O   0  0  0  0  0  0  0  0  0  0  0  0
    7.0100   -4.3990   21.4960 N   0  0  0  0  0  0  0  0  0  0  0  0
    6.6300   -5.5180   22.3040 C   0  0  0  0  0  0  0  0  0  0  0  0
    5.7640   -4.9280   23.4150 C   0  0  0  0  0  0  0  0  0  0  0  0
    6.5820   -3.9070   24.1410 C   0  0  0  0  0  0  0  0  0  0  0  0
    5.8500   -3.3080   25.2640 C   0  0  0  0  0  0  0  0  0  0  0  0
    5.1220   -2.3470   25.0060 O   0  0  0  0  0  0  0  0  0  0  0  0
    5.9690   -3.8520   26.5270 N   0  0  0  0  0  0  0  0  0  0  0  0
    5.1620   -4.8900   26.9830 C   0  0  0  0  0  0  0  0  0  0  0  0
    5.4490   -5.5720   28.1120 C   0  0  0  0  0  0  0  0  0  0  0  0
    5.7220   -4.8350   29.2300 C   0  0  0  0  0  0  0  0  0  0  0  0
    6.4120   -5.6110   30.1320 O   0  0  0  0  0  0  0  0  0  0  0  0
    4.5930   -4.2440   29.7790 C   0  0  0  0  0  0  0  0  0  0  0  0
    4.5440   -2.7740   30.0540 C   0  0  0  0  0  0  0  0  0  0  0  0
    3.3920   -2.0310   30.2610 O   0  0  0  0  0  0  0  0  0  0  0  0
    5.7840   -2.2130   30.0920 O   0  0  0  0  0  0  0  0  0  0  0  0
    6.1250   -0.8620   30.0950 C   0  0  0  0  0  0  0  0  0  0  0  0
    5.4290   -0.2770   28.8690 C   0  0  0  0  0  0  0  0  0  0  0  0
    7.5120   -0.6860   30.2120 C   0  0  0  0  0  0  0  0  0  0  0  0
    5.5000   -0.1640   31.2830 C   0  0  0  0  0  0  0  0  0  0  0  0
    3.3380   -4.9160   29.6740 C   0  0  0  0  0  0  0  0  0  0  0  0
    3.7760   -5.0930   30.8050 C   0  0  0  0  0  0  0  0  0  0  0  0
    6.6470   -3.8350   28.8510 C   0  0  0  0  0  0  0  0  0  0  0  0
    6.3550   -2.9780   27.6330 C   0  0  0  0  0  0  0  0  0  0  0  0
    7.0380   -2.7710   23.2680 C   0  0  0  0  0  0  0  0  0  0  0  0
    7.7730   -3.3260   22.1210 C   0  0  0  0  0  0  0  0  0  0  0  0
  1  2  1  0
  2  3  2  0
  2  4  1  0
  4  5  1  0
  5  6  1  0
  6  7  1  0
  7  8  1  0
  8  9  2  0
  8 10  1  0
 10 11  1  0
 11 12  1  0
 12 13  1  0
 13 14  1  0
 13 15  1  0
 15 16  1  0
 16 17  2  0
 16 18  1  0
 19 18  1  0
 19 20  1  0
 19 21  1  0
 19 22  1  0
 15 23  1  0
 15 24  1  0
 23 24  1  0
 13 25  1  0
 10 26  1  0
 25 26  1  0
  7 27  1  0
  4 28  1  0
 27 28  1  0
M  END
