piperidine-amides-10617-covalent
     RDKit          3D

 23 24  0  0  0  0  0  0  0  0999 V2000
    7.1360   -3.2790   19.1950 C   0  0  0  0  0  0  0  0  0  0  0  0
    6.3320   -3.9790   20.1960 C   0  0  0  0  0  0  0  0  0  0  0  0
    5.2230   -4.4390   19.8290 O   0  0  0  0  0  0  0  0  0  0  0  0
    6.8350   -4.1650   21.4770 N   0  0  0  0  0  0  0  0  0  0  0  0
    6.5360   -5.3610   22.2200 C   0  0  0  0  0  0  0  0  0  0  0  0
    5.8960   -4.9300   23.5060 C   0  0  0  0  0  0  0  0  0  0  0  0
    6.6720   -3.8130   24.1550 C   0  0  0  0  0  0  0  0  0  0  0  0
    5.8930   -3.2380   25.2620 C   0  0  0  0  0  0  0  0  0  0  0  0
    4.8090   -2.6710   25.0000 O   0  0  0  0  0  0  0  0  0  0  0  0
    6.3060   -3.3180   26.5950 N   0  0  0  0  0  0  0  0  0  0  0  0
    5.7340   -4.3140   27.4450 C   0  0  1  0  0  0  0  0  0  0  0  0
    5.8340   -5.7380   26.9110 C   0  0  0  0  0  0  0  0  0  0  0  0
    4.8270   -6.6640   27.0130 C   0  0  0  0  0  0  0  0  0  0  0  0
    6.3330   -4.2660   28.8120 C   0  0  0  0  0  0  0  0  0  0  0  0
    5.5800   -5.0810   29.6220 C   0  0  0  0  0  0  0  0  0  0  0  0
    5.9940   -6.3360   29.9950 C   0  0  0  0  0  0  0  0  0  0  0  0
    5.3040   -7.2100   30.8090 C   0  0  0  0  0  0  0  0  0  0  0  0
    3.9440   -6.9420   31.4440 C   0  0  0  0  0  0  0  0  0  0  0  0
    2.9410   -8.1240   32.5900 Br  0  0  0  0  0  0  0  0  0  0  0  0
    3.5530   -5.5410   30.9780 C   0  0  0  0  0  0  0  0  0  0  0  0
    4.3670   -4.6480   30.0870 C   0  0  0  0  0  0  0  0  0  0  0  0
    6.9850   -2.6970   23.2050 C   0  0  0  0  0  0  0  0  0  0  0  0
    7.6860   -3.1670   22.1270 C   0  0  0  0  0  0  0  0  0  0  0  0
  1  2  1  0
  2  3  2  0
  2  4  1  0
  4  5  1  0
  5  6  1  0
  6  7  1  0
  7  8  1  0
  8  9  2  0
  8 10  1  0
 10 11  1  0
 11 12  1  6
 12 13  1  0
 11 14  1  0
 14 15  1  0
 15 16  2  0
 16 17  1  0
 17 18  2  0
 18 19  1  0
 18 20  1  0
 15 21  1  0
 20 21  2  0
  7 22  1  0
  4 23  1  0
 22 23  1  0
M  END
