piperidine-amides-27282-covalent
     RDKit          3D

 25 26  0  0  0  0  0  0  0  0999 V2000
    7.0450   -3.3460   19.3480 C   0  0  0  0  0  0  0  0  0  0  0  0
    6.3920   -4.2090   20.3330 C   0  0  0  0  0  0  0  0  0  0  0  0
    5.3400   -4.7880   19.9590 O   0  0  0  0  0  0  0  0  0  0  0  0
    6.9530   -4.4100   21.5950 N   0  0  0  0  0  0  0  0  0  0  0  0
    6.6500   -5.5990   22.3420 C   0  0  0  0  0  0  0  0  0  0  0  0
    5.8210   -5.1840   23.5220 C   0  0  0  0  0  0  0  0  0  0  0  0
    6.3900   -3.9750   24.2180 C   0  0  0  0  0  0  0  0  0  0  0  0
    5.3980   -3.4400   25.1850 C   0  0  0  0  0  0  0  0  0  0  0  0
    4.4990   -2.7090   24.7340 O   0  0  0  0  0  0  0  0  0  0  0  0
    5.3930   -3.6940   26.5730 N   0  0  0  0  0  0  0  0  0  0  0  0
    6.4940   -3.2390   27.3220 C   0  0  0  0  0  0  0  0  0  0  0  0
    6.7780   -4.2910   28.3720 C   0  0  0  0  0  0  0  0  0  0  0  0
    5.8280   -4.4990   29.2490 C   0  0  0  0  0  0  0  0  0  0  0  0
    4.5670   -4.2460   28.8040 C   0  0  2  0  0  0  0  0  0  0  0  0
    3.8320   -5.3700   28.6880 N   0  0  0  0  0  0  0  0  0  0  0  0
    2.9060   -5.6390   29.6080 C   0  0  0  0  0  0  0  0  0  0  0  0
    3.0880   -5.1360   30.8780 O   0  0  0  0  0  0  0  0  0  0  0  0
    1.7660   -6.3960   29.3740 O   0  0  0  0  0  0  0  0  0  0  0  0
    1.3500   -7.3320   30.3270 C   0  0  0  0  0  0  0  0  0  0  0  0
    1.4670   -8.6550   29.9530 C   0  0  0  0  0  0  0  0  0  0  0  0
    2.2700   -8.2430   31.1680 C   0  0  0  0  0  0  0  0  0  0  0  0
    0.0530   -6.9860   30.9870 C   0  0  0  0  0  0  0  0  0  0  0  0
    4.5510   -3.3660   27.7170 C   0  0  0  0  0  0  0  0  0  0  0  0
    6.7620   -2.8740   23.2590 C   0  0  0  0  0  0  0  0  0  0  0  0
    7.6530   -3.3510   22.3260 C   0  0  0  0  0  0  0  0  0  0  0  0
  1  2  1  0
  2  3  2  0
  2  4  1  0
  4  5  1  0
  5  6  1  0
  6  7  1  0
  7  8  1  0
  8  9  2  0
  8 10  1  0
 10 11  1  0
 11 12  1  0
 12 13  1  0
 13 14  1  0
 14 15  1  6
 15 16  1  0
 16 17  2  0
 16 18  1  0
 19 18  1  0
 19 20  1  0
 19 21  1  0
 19 22  1  0
 10 23  1  0
 14 23  1  0
  7 24  1  0
  4 25  1  0
 24 25  1  0
M  END
