piperidine-amides-788-covalent
     RDKit          3D

 25 26  0  0  0  0  0  0  0  0999 V2000
    7.0680   -3.3570   19.2760 C   0  0  0  0  0  0  0  0  0  0  0  0
    6.3690   -4.0930   20.3100 C   0  0  0  0  0  0  0  0  0  0  0  0
    5.3350   -4.7390   19.9540 O   0  0  0  0  0  0  0  0  0  0  0  0
    6.7940   -4.1690   21.6550 N   0  0  0  0  0  0  0  0  0  0  0  0
    7.7360   -3.0970   22.1180 C   0  0  0  0  0  0  0  0  0  0  0  0
    7.4280   -3.0200   23.6560 C   0  0  0  0  0  0  0  0  0  0  0  0
    6.1070   -3.7060   23.7550 C   0  0  0  0  0  0  0  0  0  0  0  0
    5.1550   -3.1930   24.9060 C   0  0  0  0  0  0  0  0  0  0  0  0
    4.2140   -2.5900   24.4190 O   0  0  0  0  0  0  0  0  0  0  0  0
    5.5780   -3.5110   26.0510 N   0  0  0  0  0  0  0  0  0  0  0  0
    5.8690   -3.7210   27.3440 C   0  0  2  0  0  0  0  0  0  0  0  0
    6.6920   -3.1830   28.2570 C   0  0  0  0  0  0  0  0  0  0  0  0
    6.2630   -2.0180   29.4130 S   0  0  0  0  0  0  0  0  0  0  0  0
    7.3790   -0.8690   30.0830 C   0  0  0  0  0  0  0  0  0  0  0  0
    6.2050   -5.0720   28.0150 C   0  0  0  0  0  0  0  0  0  0  0  0
    5.0620   -5.7670   28.7890 C   0  0  0  0  0  0  0  0  0  0  0  0
    3.9070   -5.1500   28.3080 C   0  0  0  0  0  0  0  0  0  0  0  0
    2.5110   -5.3180   28.6040 C   0  0  0  0  0  0  0  0  0  0  0  0
    2.6020   -6.4550   29.6850 C   0  0  0  0  0  0  0  0  0  0  0  0
    1.4090   -6.8430   30.1750 F   0  0  0  0  0  0  0  0  0  0  0  0
    3.8960   -7.1530   30.2270 C   0  0  0  0  0  0  0  0  0  0  0  0
    5.0720   -6.7600   29.7380 C   0  0  0  0  0  0  0  0  0  0  0  0
    6.2520   -7.3340   30.1760 F   0  0  0  0  0  0  0  0  0  0  0  0
    6.1510   -5.2020   23.5570 C   0  0  0  0  0  0  0  0  0  0  0  0
    6.7060   -5.4490   22.3430 C   0  0  0  0  0  0  0  0  0  0  0  0
  1  2  1  0
  2  3  2  0
  2  4  1  0
  4  5  1  0
  5  6  1  0
  6  7  1  0
  7  8  1  0
  8  9  2  0
  8 10  1  0
 10 11  1  0
 11 12  1  6
 12 13  1  0
 13 14  1  0
 11 15  1  0
 15 16  1  0
 16 17  2  0
 17 18  1  0
 18 19  2  0
 19 20  1  0
 19 21  1  0
 16 22  1  0
 21 22  2  0
 22 23  1  0
  7 24  1  0
  4 25  1  0
 24 25  1  0
M  END
