piperidine-amides-31007-covalent
     RDKit          3D

 27 29  0  0  0  0  0  0  0  0999 V2000
    7.1400   -3.3300   19.2400 C   0  0  0  0  0  0  0  0  0  0  0  0
    6.3770   -4.0830   20.2310 C   0  0  0  0  0  0  0  0  0  0  0  0
    5.3070   -4.6210   19.9080 O   0  0  0  0  0  0  0  0  0  0  0  0
    6.8790   -4.2510   21.5200 N   0  0  0  0  0  0  0  0  0  0  0  0
    7.7790   -3.2770   22.0980 C   0  0  0  0  0  0  0  0  0  0  0  0
    7.1210   -2.8250   23.3550 C   0  0  0  0  0  0  0  0  0  0  0  0
    6.6380   -3.9940   24.1390 C   0  0  0  0  0  0  0  0  0  0  0  0
    5.7070   -3.5500   25.1830 C   0  0  0  0  0  0  0  0  0  0  0  0
    4.7370   -2.7890   24.9000 O   0  0  0  0  0  0  0  0  0  0  0  0
    5.8220   -3.9350   26.5140 N   0  0  0  0  0  0  0  0  0  0  0  0
    4.7770   -4.7940   27.0780 C   0  0  0  0  0  0  0  0  0  0  0  0
    4.6860   -4.2530   28.4270 C   0  0  0  0  0  0  0  0  0  0  0  0
    5.8730   -3.4480   28.6100 C   0  0  2  0  0  0  0  0  0  0  0  0
    6.8100   -4.5250   29.0110 C   0  0  0  0  0  0  0  0  0  0  0  0
    5.8590   -2.3350   29.6160 C   0  0  0  0  0  0  0  0  0  0  0  0
    4.5190   -2.4330   30.2770 C   0  0  0  0  0  0  0  0  0  0  0  0
    4.2170   -1.5140   31.2560 C   0  0  0  0  0  0  0  0  0  0  0  0
    5.0370   -0.4800   31.7100 C   0  0  0  0  0  0  0  0  0  0  0  0
    6.4100   -0.2650   31.1350 C   0  0  0  0  0  0  0  0  0  0  0  0
    7.3740    0.8460   31.5750 C   0  0  0  0  0  0  0  0  0  0  0  0
    6.9840    2.0990   31.1580 F   0  0  0  0  0  0  0  0  0  0  0  0
    7.4570    0.9340   32.9660 F   0  0  0  0  0  0  0  0  0  0  0  0
    8.6580    0.6800   31.0490 F   0  0  0  0  0  0  0  0  0  0  0  0
    6.8350   -1.2420   30.0360 C   0  0  0  0  0  0  0  0  0  0  0  0
    6.2020   -2.8790   27.3860 C   0  0  0  0  0  0  0  0  0  0  0  0
    5.9770   -5.0930   23.4130 C   0  0  0  0  0  0  0  0  0  0  0  0
    6.6290   -5.4440   22.2590 C   0  0  0  0  0  0  0  0  0  0  0  0
  1  2  1  0
  2  3  2  0
  2  4  1  0
  4  5  1  0
  5  6  1  0
  6  7  1  0
  7  8  1  0
  8  9  2  0
  8 10  1  0
 10 11  1  0
 11 12  1  0
 12 13  1  0
 13 14  1  1
 13 15  1  0
 15 16  2  0
 16 17  1  0
 17 18  2  0
 18 19  1  0
 19 20  1  0
 20 21  1  0
 20 22  1  0
 20 23  1  0
 15 24  1  0
 19 24  2  0
 10 25  1  0
 13 25  1  0
  7 26  1  0
  4 27  1  0
 26 27  1  0
M  END
