piperidine-amides-30622-covalent
     RDKit          3D

 27 28  0  0  0  0  0  0  0  0999 V2000
    7.1120   -3.2430   19.1490 C   0  0  0  0  0  0  0  0  0  0  0  0
    6.3120   -3.9420   20.1600 C   0  0  0  0  0  0  0  0  0  0  0  0
    5.2380   -4.4680   19.8390 O   0  0  0  0  0  0  0  0  0  0  0  0
    6.7520   -4.0730   21.4750 N   0  0  0  0  0  0  0  0  0  0  0  0
    7.6820   -3.1190   22.0560 C   0  0  0  0  0  0  0  0  0  0  0  0
    7.1420   -2.7320   23.3990 C   0  0  0  0  0  0  0  0  0  0  0  0
    6.8390   -3.9480   24.2160 C   0  0  0  0  0  0  0  0  0  0  0  0
    6.1900   -3.5800   25.4850 C   0  0  0  0  0  0  0  0  0  0  0  0
    4.9320   -3.4000   25.5450 O   0  0  0  0  0  0  0  0  0  0  0  0
    6.9510   -3.4090   26.6680 N   0  0  0  0  0  0  0  0  0  0  0  0
    7.3220   -2.0320   27.0560 C   0  0  2  0  0  0  0  0  0  0  0  0
    7.7060   -2.0140   28.4850 C   0  0  0  0  0  0  0  0  0  0  0  0
    6.1300   -1.0660   26.9040 C   0  0  0  0  0  0  0  0  0  0  0  0
    5.1030   -1.3740   27.9460 C   0  0  0  0  0  0  0  0  0  0  0  0
    3.8630   -0.6580   28.0910 N   0  0  0  0  0  0  0  0  0  0  0  0
    3.7330    0.4170   27.0780 C   0  0  0  0  0  0  0  0  0  0  0  0
    4.7940    0.6820   26.0560 C   0  0  0  0  0  0  0  0  0  0  0  0
    4.5000    1.7330   25.1890 F   0  0  0  0  0  0  0  0  0  0  0  0
    5.9380   -0.0560   26.0040 C   0  0  0  0  0  0  0  0  0  0  0  0
    7.3870   -4.4980   27.4960 C   0  0  2  0  0  0  0  0  0  0  0  0
    8.5460   -5.3220   26.9710 C   0  0  0  0  0  0  0  0  0  0  0  0
    9.1460   -4.8800   25.8100 O   0  0  0  0  0  0  0  0  0  0  0  0
    6.3000   -5.4760   27.7580 C   0  0  0  0  0  0  0  0  0  0  0  0
    6.6590   -6.4090   28.8790 C   0  0  0  0  0  0  0  0  0  0  0  0
    5.0810   -4.9970   28.1490 C   0  0  0  0  0  0  0  0  0  0  0  0
    6.0240   -4.9690   23.5320 C   0  0  0  0  0  0  0  0  0  0  0  0
    6.4110   -5.2300   22.2440 C   0  0  0  0  0  0  0  0  0  0  0  0
  1  2  1  0
  2  3  2  0
  2  4  1  0
  4  5  1  0
  5  6  1  0
  6  7  1  0
  7  8  1  0
  8  9  2  0
  8 10  1  0
 10 11  1  0
 11 12  1  1
 11 13  1  0
 13 14  2  0
 14 15  1  0
 15 16  2  0
 16 17  1  0
 17 18  1  0
 13 19  1  0
 17 19  2  0
 10 20  1  0
 20 21  1  6
 21 22  1  0
 20 23  1  0
 23 24  1  0
 23 25  1  0
  7 26  1  0
  4 27  1  0
 26 27  1  0
M  END
