piperidine-amides-31435-covalent
     RDKit          3D

 28 30  0  0  0  0  0  0  0  0999 V2000
    7.0580   -3.3390   19.4680 C   0  0  0  0  0  0  0  0  0  0  0  0
    6.3820   -4.1860   20.4350 C   0  0  0  0  0  0  0  0  0  0  0  0
    5.4480   -4.9410   20.0060 O   0  0  0  0  0  0  0  0  0  0  0  0
    6.7440   -4.2140   21.8090 N   0  0  0  0  0  0  0  0  0  0  0  0
    6.6690   -5.5400   22.4900 C   0  0  0  0  0  0  0  0  0  0  0  0
    6.0190   -5.2490   23.9220 C   0  0  0  0  0  0  0  0  0  0  0  0
    6.0200   -3.7510   24.1480 C   0  0  0  0  0  0  0  0  0  0  0  0
    4.9620   -3.2060   25.2550 C   0  0  0  0  0  0  0  0  0  0  0  0
    3.9540   -2.9130   24.6480 O   0  0  0  0  0  0  0  0  0  0  0  0
    5.3390   -3.1830   26.4910 N   0  0  0  0  0  0  0  0  0  0  0  0
    5.4680   -2.8180   27.8020 C   0  0  0  0  0  0  0  0  0  0  0  0
    5.7060   -3.4580   28.9990 C   0  0  0  0  0  0  0  0  0  0  0  0
    5.3100   -4.8560   28.8520 N   0  0  0  0  0  0  0  0  0  0  0  0
    5.1840   -5.7030   29.8830 C   0  0  0  0  0  0  0  0  0  0  0  0
    6.1420   -6.3110   30.7100 O   0  0  0  0  0  0  0  0  0  0  0  0
    3.7900   -6.0620   30.2080 C   0  0  0  0  0  0  0  0  0  0  0  0
    4.3220   -7.3780   30.7980 C   0  0  2  0  0  0  0  0  0  0  0  0
    3.0700   -7.9630   30.6490 C   0  0  0  0  0  0  0  0  0  0  0  0
    3.7950   -8.0460   32.0700 C   0  0  0  0  0  0  0  0  0  0  0  0
    2.3110   -8.3770   31.9880 C   0  0  0  0  0  0  0  0  0  0  0  0
    1.6260   -9.0610   33.1940 C   0  0  0  0  0  0  0  0  0  0  0  0
    2.4130   -9.3310   34.2820 C   0  0  0  0  0  0  0  0  0  0  0  0
    3.7580   -9.0030   34.2930 C   0  0  0  0  0  0  0  0  0  0  0  0
    4.4040   -8.3950   33.2420 C   0  0  0  0  0  0  0  0  0  0  0  0
    5.8300   -5.3880   27.6220 C   0  0  0  0  0  0  0  0  0  0  0  0
    6.1160   -4.2940   26.8130 C   0  0  0  0  0  0  0  0  0  0  0  0
    7.2670   -3.0160   23.8390 C   0  0  0  0  0  0  0  0  0  0  0  0
    7.6460   -3.2530   22.4090 C   0  0  0  0  0  0  0  0  0  0  0  0
  1  2  1  0
  2  3  2  0
  2  4  1  0
  4  5  1  0
  5  6  1  0
  6  7  1  0
  7  8  1  0
  8  9  2  0
  8 10  1  0
 10 11  1  0
 11 12  1  0
 12 13  1  0
 13 14  1  0
 14 15  2  0
 14 16  1  0
 16 17  1  0
 17 18  1  6
 17 19  1  0
 19 20  2  0
 20 21  1  0
 21 22  2  0
 22 23  1  0
 19 24  1  0
 23 24  2  0
 13 25  1  0
 10 26  1  0
 25 26  1  0
  7 27  1  0
  4 28  1  0
 27 28  1  0
M  END
