piperidine-amides-6531-covalent
     RDKit          3D

 24 25  0  0  0  0  0  0  0  0999 V2000
    7.2470   -3.9420   19.6490 C   0  0  0  0  0  0  0  0  0  0  0  0
    6.0150   -3.7610   20.2830 C   0  0  0  0  0  0  0  0  0  0  0  0
    4.9950   -3.9230   19.5810 O   0  0  0  0  0  0  0  0  0  0  0  0
    6.0490   -3.5350   21.6400 N   0  0  0  0  0  0  0  0  0  0  0  0
    7.2280   -2.8250   22.1090 C   0  0  0  0  0  0  0  0  0  0  0  0
    7.2640   -3.0230   23.6220 C   0  0  0  0  0  0  0  0  0  0  0  0
    5.8140   -2.9280   24.0350 C   0  0  0  0  0  0  0  0  0  0  0  0
    5.6270   -2.7740   25.4880 C   0  0  0  0  0  0  0  0  0  0  0  0
    4.4720   -2.9500   25.9350 O   0  0  0  0  0  0  0  0  0  0  0  0
    6.7090   -2.4280   26.3440 N   0  0  0  0  0  0  0  0  0  0  0  0
    6.5650   -2.6550   27.7570 C   0  0  0  0  0  0  0  0  0  0  0  0
    6.4040   -4.1460   27.9380 C   0  0  0  0  0  0  0  0  0  0  0  0
    6.7030   -4.8810   26.8540 C   0  0  0  0  0  0  0  0  0  0  0  0
    5.7850   -5.2220   25.8930 C   0  0  0  0  0  0  0  0  0  0  0  0
    6.2660   -5.9940   24.7990 N   0  0  0  0  0  0  0  0  0  0  0  0
    7.5520   -6.4320   24.6030 C   0  0  0  0  0  0  0  0  0  0  0  0
    7.8740   -7.1630   23.5470 O   0  0  0  0  0  0  0  0  0  0  0  0
    6.9400   -7.9890   23.0420 C   0  0  0  0  0  0  0  0  0  0  0  0
    8.5190   -6.0300   25.6860 C   0  0  0  0  0  0  0  0  0  0  0  0
    8.0050   -5.2240   26.8330 C   0  0  0  0  0  0  0  0  0  0  0  0
    8.7290   -4.8470   27.8020 O   0  0  0  0  0  0  0  0  0  0  0  0
    8.6860   -3.5150   28.2480 C   0  0  0  0  0  0  0  0  0  0  0  0
    5.0080   -4.1120   23.5330 C   0  0  0  0  0  0  0  0  0  0  0  0
    5.6950   -4.6640   22.4580 C   0  0  0  0  0  0  0  0  0  0  0  0
  1  2  1  0
  2  3  2  0
  2  4  1  0
  4  5  1  0
  5  6  1  0
  6  7  1  0
  7  8  1  0
  8  9  2  0
  8 10  1  0
 10 11  1  0
 11 12  1  0
 12 13  1  0
 13 14  2  0
 14 15  1  0
 15 16  2  0
 16 17  1  0
 17 18  1  0
 16 19  1  0
 13 20  1  0
 19 20  2  0
 20 21  1  0
 21 22  1  0
  7 23  1  0
  4 24  1  0
 23 24  1  0
M  END
