piperidine-amides-14379-covalent
     RDKit          3D

 24 26  0  0  0  0  0  0  0  0999 V2000
    7.1110   -3.2890   19.2370 C   0  0  0  0  0  0  0  0  0  0  0  0
    6.4010   -4.0790   20.2430 C   0  0  0  0  0  0  0  0  0  0  0  0
    5.3260   -4.6090   19.9110 O   0  0  0  0  0  0  0  0  0  0  0  0
    6.9600   -4.2810   21.5320 N   0  0  0  0  0  0  0  0  0  0  0  0
    7.6830   -3.1980   22.1420 C   0  0  0  0  0  0  0  0  0  0  0  0
    6.8570   -2.6240   23.2470 C   0  0  0  0  0  0  0  0  0  0  0  0
    6.5810   -3.7520   24.2140 C   0  0  0  0  0  0  0  0  0  0  0  0
    5.7700   -3.2480   25.3650 C   0  0  0  0  0  0  0  0  0  0  0  0
    4.5580   -3.1500   25.1740 O   0  0  0  0  0  0  0  0  0  0  0  0
    6.4200   -2.9240   26.5510 N   0  0  0  0  0  0  0  0  0  0  0  0
    5.9190   -3.3230   27.8260 C   0  0  0  0  0  0  0  0  0  0  0  0
    6.4350   -4.5260   28.2990 C   0  0  0  0  0  0  0  0  0  0  0  0
    5.8150   -5.3200   29.2160 C   0  0  0  0  0  0  0  0  0  0  0  0
    6.4130   -6.5570   29.4100 C   0  0  0  0  0  0  0  0  0  0  0  0
    5.8160   -7.4900   30.4000 C   0  0  0  0  0  0  0  0  0  0  0  0
    4.5680   -7.1310   31.2020 C   0  0  0  0  0  0  0  0  0  0  0  0
    4.0760   -5.7880   30.8610 C   0  0  0  0  0  0  0  0  0  0  0  0
    2.8650   -5.3470   31.5900 C   0  0  0  0  0  0  0  0  0  0  0  0
    2.3500   -3.9530   31.2440 C   0  0  0  0  0  0  0  0  0  0  0  0
    2.9640   -3.1490   30.3140 C   0  0  0  0  0  0  0  0  0  0  0  0
    4.0760   -3.6580   29.7000 N   0  0  0  0  0  0  0  0  0  0  0  0
    4.6810   -4.9530   29.9200 C   0  0  0  0  0  0  0  0  0  0  0  0
    5.8460   -4.8960   23.5870 C   0  0  0  0  0  0  0  0  0  0  0  0
    6.5390   -5.3780   22.3480 C   0  0  0  0  0  0  0  0  0  0  0  0
  1  2  1  0
  2  3  2  0
  2  4  1  0
  4  5  1  0
  5  6  1  0
  6  7  1  0
  7  8  1  0
  8  9  2  0
  8 10  1  0
 10 11  1  0
 11 12  1  0
 12 13  1  0
 13 14  2  0
 14 15  1  0
 15 16  2  0
 16 17  1  0
 17 18  1  0
 18 19  2  0
 19 20  1  0
 20 21  2  0
 13 22  1  0
 17 22  2  0
 21 22  1  0
  7 23  1  0
  4 24  1  0
 23 24  1  0
M  END
