piperidine-amides-30120-covalent
     RDKit          3D

 27 29  0  0  0  0  0  0  0  0999 V2000
    7.0690   -3.3980   19.3750 C   0  0  0  0  0  0  0  0  0  0  0  0
    6.3680   -4.2240   20.3420 C   0  0  0  0  0  0  0  0  0  0  0  0
    5.3650   -4.8420   19.9900 O   0  0  0  0  0  0  0  0  0  0  0  0
    6.8810   -4.3680   21.6820 N   0  0  0  0  0  0  0  0  0  0  0  0
    7.6740   -3.3330   22.2870 C   0  0  0  0  0  0  0  0  0  0  0  0
    6.9270   -2.7110   23.4310 C   0  0  0  0  0  0  0  0  0  0  0  0
    6.3890   -3.7980   24.3590 C   0  0  0  0  0  0  0  0  0  0  0  0
    5.2700   -3.2370   25.1900 C   0  0  0  0  0  0  0  0  0  0  0  0
    4.2570   -2.8130   24.6240 O   0  0  0  0  0  0  0  0  0  0  0  0
    5.3080   -3.1670   26.6240 N   0  0  0  0  0  0  0  0  0  0  0  0
    6.5280   -3.1940   27.2610 C   0  0  0  0  0  0  0  0  0  0  0  0
    6.4040   -4.3740   28.2090 C   0  0  0  0  0  0  0  0  0  0  0  0
    5.1540   -4.5350   28.7660 C   0  0  0  0  0  0  0  0  0  0  0  0
    4.0860   -3.7220   28.3590 C   0  0  0  0  0  0  0  0  0  0  0  0
    2.8430   -3.8990   28.9220 C   0  0  0  0  0  0  0  0  0  0  0  0
    2.5980   -4.9000   29.9280 C   0  0  0  0  0  0  0  0  0  0  0  0
    3.5570   -5.7440   30.4000 C   0  0  0  0  0  0  0  0  0  0  0  0
    3.4170   -6.6700   31.3070 O   0  0  0  0  0  0  0  0  0  0  0  0
    3.2090   -8.0530   31.5650 C   0  0  0  0  0  0  0  0  0  0  0  0
    4.8960   -5.4820   29.7250 C   0  0  0  0  0  0  0  0  0  0  0  0
    5.8210   -6.3420   30.2300 O   0  0  0  0  0  0  0  0  0  0  0  0
    6.3040   -7.3720   29.4690 C   0  0  0  0  0  0  0  0  0  0  0  0
    4.2270   -2.7220   27.3900 C   0  0  2  0  0  0  0  0  0  0  0  0
    3.1340   -2.4420   26.5640 C   0  0  0  0  0  0  0  0  0  0  0  0
    1.8990   -1.8890   27.1910 C   0  0  0  0  0  0  0  0  0  0  0  0
    5.7880   -5.0120   23.6920 C   0  0  0  0  0  0  0  0  0  0  0  0
    6.5480   -5.5020   22.4760 C   0  0  0  0  0  0  0  0  0  0  0  0
  1  2  1  0
  2  3  2  0
  2  4  1  0
  4  5  1  0
  5  6  1  0
  6  7  1  0
  7  8  1  0
  8  9  2  0
  8 10  1  0
 10 11  1  0
 11 12  1  0
 12 13  1  0
 13 14  2  0
 14 15  1  0
 15 16  2  0
 16 17  1  0
 17 18  1  0
 18 19  1  0
 13 20  1  0
 17 20  2  0
 20 21  1  0
 21 22  1  0
 10 23  1  0
 14 23  1  0
 23 24  1  6
 24 25  1  0
  7 26  1  0
  4 27  1  0
 26 27  1  0
M  END
