piperidine-amides-27163-covalent
     RDKit          3D

 25 26  0  0  0  0  0  0  0  0999 V2000
    7.0660   -3.3250   19.3150 C   0  0  0  0  0  0  0  0  0  0  0  0
    6.3850   -4.1380   20.3250 C   0  0  0  0  0  0  0  0  0  0  0  0
    5.3410   -4.7350   19.9510 O   0  0  0  0  0  0  0  0  0  0  0  0
    6.9070   -4.2780   21.6150 N   0  0  0  0  0  0  0  0  0  0  0  0
    6.6900   -5.4910   22.3690 C   0  0  0  0  0  0  0  0  0  0  0  0
    6.1890   -5.1330   23.7460 C   0  0  0  0  0  0  0  0  0  0  0  0
    6.0710   -3.6370   23.9410 C   0  0  0  0  0  0  0  0  0  0  0  0
    5.4900   -3.2660   25.2740 C   0  0  0  0  0  0  0  0  0  0  0  0
    4.2840   -2.9430   25.2740 O   0  0  0  0  0  0  0  0  0  0  0  0
    6.1460   -3.2470   26.5280 N   0  0  0  0  0  0  0  0  0  0  0  0
    5.4760   -2.7040   27.6910 C   0  0  2  0  0  0  0  0  0  0  0  0
    6.3180   -1.5520   28.2260 C   0  0  0  0  0  0  0  0  0  0  0  0
    5.3260   -3.7380   28.7470 C   0  0  0  0  0  0  0  0  0  0  0  0
    6.3180   -4.6760   28.8680 C   0  0  0  0  0  0  0  0  0  0  0  0
    7.3930   -4.3600   28.1220 C   0  0  0  0  0  0  0  0  0  0  0  0
    7.0260   -4.3030   26.8120 C   0  0  1  0  0  0  0  0  0  0  0  0
    6.5360   -5.5010   26.4020 C   0  0  0  0  0  0  0  0  0  0  0  0
    5.2500   -5.7650   25.9080 O   0  0  0  0  0  0  0  0  0  0  0  0
    7.5020   -6.3720   26.5710 O   0  0  0  0  0  0  0  0  0  0  0  0
    8.6170   -5.6040   26.7400 C   0  0  0  0  0  0  0  0  0  0  0  0
    9.6610   -6.3110   26.0170 C   0  0  0  0  0  0  0  0  0  0  0  0
    8.5270   -4.3370   26.1970 C   0  0  0  0  0  0  0  0  0  0  0  0
    8.8520   -5.4710   28.0820 C   0  0  0  0  0  0  0  0  0  0  0  0
    7.3340   -2.9240   23.6220 C   0  0  0  0  0  0  0  0  0  0  0  0
    7.7150   -3.2220   22.1870 C   0  0  0  0  0  0  0  0  0  0  0  0
  1  2  1  0
  2  3  2  0
  2  4  1  0
  4  5  1  0
  5  6  1  0
  6  7  1  0
  7  8  1  0
  8  9  2  0
  8 10  1  0
 10 11  1  0
 11 12  1  1
 11 13  1  0
 13 14  1  0
 14 15  1  0
 10 16  1  0
 15 16  1  0
 16 17  1  1
 17 18  2  0
 17 19  1  0
 20 19  1  0
 20 21  1  0
 20 22  1  0
 20 23  1  0
  7 24  1  0
  4 25  1  0
 24 25  1  0
M  END
