piperidine-amides-27843-covalent
     RDKit          3D

 26 29  0  0  0  0  0  0  0  0999 V2000
    7.0520   -3.3420   19.3650 C   0  0  0  0  0  0  0  0  0  0  0  0
    6.3890   -4.2150   20.3620 C   0  0  0  0  0  0  0  0  0  0  0  0
    5.3690   -4.8180   19.9730 O   0  0  0  0  0  0  0  0  0  0  0  0
    6.9170   -4.3930   21.6550 N   0  0  0  0  0  0  0  0  0  0  0  0
    6.5040   -5.5130   22.4290 C   0  0  0  0  0  0  0  0  0  0  0  0
    5.7360   -5.1570   23.6330 C   0  0  0  0  0  0  0  0  0  0  0  0
    6.1460   -3.9110   24.3210 C   0  0  0  0  0  0  0  0  0  0  0  0
    5.0530   -3.4500   25.2540 C   0  0  0  0  0  0  0  0  0  0  0  0
    3.8950   -3.4590   24.8040 O   0  0  0  0  0  0  0  0  0  0  0  0
    5.3360   -3.0160   26.6080 N   0  0  0  0  0  0  0  0  0  0  0  0
    4.5150   -3.3060   27.8520 C   0  0  0  0  0  0  0  0  0  0  0  0
    4.8050   -4.6990   28.2920 C   0  0  0  0  0  0  0  0  0  0  0  0
    6.0140   -4.7540   29.0910 C   0  0  0  0  0  0  0  0  0  0  0  0
    6.4210   -6.0440   29.2050 C   0  0  0  0  0  0  0  0  0  0  0  0
    5.5700   -6.7480   29.7550 O   0  0  0  0  0  0  0  0  0  0  0  0
    4.4890   -6.7190   29.0270 C   0  0  0  0  0  0  0  0  0  0  0  0
    3.8160   -5.5500   28.7650 C   0  0  0  0  0  0  0  0  0  0  0  0
    5.3830   -5.3400   27.2740 O   0  0  0  0  0  0  0  0  0  0  0  0
    6.2810   -4.3300   27.0420 C   0  0  0  0  0  0  0  0  0  0  0  0
    4.9600   -3.8310   26.8200 C   0  0  0  0  0  0  0  0  0  0  0  0
    4.4830   -2.5000   26.4240 C   0  0  0  0  0  0  0  0  0  0  0  0
    5.2940   -1.2820   26.1360 C   0  0  0  0  0  0  0  0  0  0  0  0
    6.6830   -1.6740   26.3270 C   0  0  0  0  0  0  0  0  0  0  0  0
    6.7180   -3.0780   26.7200 C   0  0  0  0  0  0  0  0  0  0  0  0
    6.6820   -2.8410   23.4500 C   0  0  0  0  0  0  0  0  0  0  0  0
    7.6150   -3.3330   22.3600 C   0  0  0  0  0  0  0  0  0  0  0  0
  1  2  1  0
  2  3  2  0
  2  4  1  0
  4  5  1  0
  5  6  1  0
  6  7  1  0
  7  8  1  0
  8  9  2  0
  8 10  1  0
 10 11  1  0
 11 12  1  0
 12 13  1  0
 13 14  1  0
 14 15  1  0
 15 16  1  0
 12 17  1  0
 16 17  1  0
 12 18  1  0
 18 19  1  0
 19 20  2  0
 20 21  1  0
 21 22  2  0
 22 23  1  0
 10 24  1  0
 19 24  1  0
 23 24  2  0
  7 25  1  0
  4 26  1  0
 25 26  1  0
M  END
