piperidine-amides-26015-covalent
     RDKit          3D

 25 27  0  0  0  0  0  0  0  0999 V2000
    7.1140   -3.3400   19.3320 C   0  0  0  0  0  0  0  0  0  0  0  0
    6.4260   -4.1810   20.3080 C   0  0  0  0  0  0  0  0  0  0  0  0
    5.3800   -4.7670   19.9680 O   0  0  0  0  0  0  0  0  0  0  0  0
    6.9540   -4.3960   21.5910 N   0  0  0  0  0  0  0  0  0  0  0  0
    6.6120   -5.5360   22.3930 C   0  0  0  0  0  0  0  0  0  0  0  0
    5.7160   -4.9940   23.4750 C   0  0  0  0  0  0  0  0  0  0  0  0
    6.2410   -3.7370   24.1300 C   0  0  0  0  0  0  0  0  0  0  0  0
    5.1540   -3.0210   24.8450 C   0  0  0  0  0  0  0  0  0  0  0  0
    4.0400   -2.8010   24.3040 O   0  0  0  0  0  0  0  0  0  0  0  0
    5.3030   -2.5760   26.1550 N   0  0  0  0  0  0  0  0  0  0  0  0
    5.6370   -3.6690   27.0210 C   0  0  0  0  0  0  0  0  0  0  0  0
    4.6390   -4.6350   27.4830 C   0  0  0  0  0  0  0  0  0  0  0  0
    5.0870   -5.7450   28.3580 C   0  0  0  0  0  0  0  0  0  0  0  0
    6.5110   -5.8890   28.7640 N   0  0  0  0  0  0  0  0  0  0  0  0
    7.3470   -4.7760   28.1700 C   0  0  0  0  0  0  0  0  0  0  0  0
    8.7850   -4.6370   28.3850 C   0  0  0  0  0  0  0  0  0  0  0  0
    9.1150   -3.3680   28.8440 O   0  0  0  0  0  0  0  0  0  0  0  0
    9.5790   -5.5410   28.0730 O   0  0  0  0  0  0  0  0  0  0  0  0
    9.0360   -6.3190   27.0740 C   0  0  0  0  0  0  0  0  0  0  0  0
    6.8640   -3.7970   27.3810 N   0  0  0  0  0  0  0  0  0  0  0  0
    6.1080   -1.3890   26.3100 C   0  0  0  0  0  0  0  0  0  0  0  0
    5.8500   -0.4080   27.1240 C   0  0  0  0  0  0  0  0  0  0  0  0
    6.6900   -1.2290   27.9000 C   0  0  0  0  0  0  0  0  0  0  0  0
    6.8940   -2.7130   23.2330 C   0  0  0  0  0  0  0  0  0  0  0  0
    7.7780   -3.4040   22.2410 C   0  0  0  0  0  0  0  0  0  0  0  0
  1  2  1  0
  2  3  2  0
  2  4  1  0
  4  5  1  0
  5  6  1  0
  6  7  1  0
  7  8  1  0
  8  9  2  0
  8 10  1  0
 10 11  1  0
 11 12  2  0
 12 13  1  0
 13 14  2  0
 14 15  1  0
 15 16  1  0
 16 17  2  0
 16 18  1  0
 18 19  1  0
 11 20  1  0
 15 20  2  0
 10 21  1  0
 21 22  1  0
 21 23  1  0
 22 23  1  0
  7 24  1  0
  4 25  1  0
 24 25  1  0
M  END
