piperidine-amides-31476-covalent
     RDKit          3D

 27 29  0  0  0  0  0  0  0  0999 V2000
    7.0820   -3.3550   19.4440 C   0  0  0  0  0  0  0  0  0  0  0  0
    6.3940   -4.2030   20.3980 C   0  0  0  0  0  0  0  0  0  0  0  0
    5.4150   -4.9050   19.9910 O   0  0  0  0  0  0  0  0  0  0  0  0
    6.8050   -4.2870   21.7430 N   0  0  0  0  0  0  0  0  0  0  0  0
    7.6970   -3.1720   22.1970 C   0  0  0  0  0  0  0  0  0  0  0  0
    7.6020   -3.2380   23.7640 C   0  0  0  0  0  0  0  0  0  0  0  0
    6.2730   -3.8790   24.0160 C   0  0  0  0  0  0  0  0  0  0  0  0
    5.4540   -3.2740   25.2430 C   0  0  0  0  0  0  0  0  0  0  0  0
    4.7580   -2.3630   24.8350 O   0  0  0  0  0  0  0  0  0  0  0  0
    5.6900   -3.8630   26.3490 N   0  0  0  0  0  0  0  0  0  0  0  0
    5.6230   -4.7310   27.3920 C   0  0  0  0  0  0  0  0  0  0  0  0
    5.9230   -4.5030   28.6800 C   0  0  0  0  0  0  0  0  0  0  0  0
    6.5490   -3.2790   28.4910 C   0  0  2  0  0  0  0  0  0  0  0  0
    6.1960   -2.1350   29.3600 C   0  0  0  0  0  0  0  0  0  0  0  0
    7.4060   -1.2850   29.7430 C   0  0  0  0  0  0  0  0  0  0  0  0
    6.8820   -0.2570   30.5690 C   0  0  0  0  0  0  0  0  0  0  0  0
    5.5160   -0.0740   30.9470 C   0  0  0  0  0  0  0  0  0  0  0  0
    5.8280    1.1740   31.7840 C   0  0  0  0  0  0  0  0  0  0  0  0
    6.7770    1.0910   32.7340 F   0  0  0  0  0  0  0  0  0  0  0  0
    6.2840    2.2320   30.9550 F   0  0  0  0  0  0  0  0  0  0  0  0
    4.6490    1.5280   32.4090 F   0  0  0  0  0  0  0  0  0  0  0  0
    4.3740   -1.0060   30.4880 C   0  0  0  0  0  0  0  0  0  0  0  0
    4.7130   -2.0460   29.6870 C   0  0  0  0  0  0  0  0  0  0  0  0
    3.7810   -2.9070   29.2430 F   0  0  0  0  0  0  0  0  0  0  0  0
    6.3550   -2.7940   27.1260 C   0  0  0  0  0  0  0  0  0  0  0  0
    6.2870   -5.3640   23.7720 C   0  0  0  0  0  0  0  0  0  0  0  0
    6.7170   -5.5450   22.4750 C   0  0  0  0  0  0  0  0  0  0  0  0
  1  2  1  0
  2  3  2  0
  2  4  1  0
  4  5  1  0
  5  6  1  0
  6  7  1  0
  7  8  1  0
  8  9  2  0
  8 10  1  0
 10 11  1  0
 11 12  1  0
 12 13  1  0
 13 14  1  1
 14 15  2  0
 15 16  1  0
 16 17  2  0
 17 18  1  0
 18 19  1  0
 18 20  1  0
 18 21  1  0
 17 22  1  0
 14 23  1  0
 22 23  2  0
 23 24  1  0
 10 25  1  0
 13 25  1  0
  7 26  1  0
  4 27  1  0
 26 27  1  0
M  END
