piperidine-amides-5458-covalent
     RDKit          3D

 20 22  0  0  0  0  0  0  0  0999 V2000
    7.1400   -3.2770   19.2050 C   0  0  0  0  0  0  0  0  0  0  0  0
    6.3690   -4.0250   20.2020 C   0  0  0  0  0  0  0  0  0  0  0  0
    5.2810   -4.5230   19.8710 O   0  0  0  0  0  0  0  0  0  0  0  0
    6.8570   -4.2460   21.4970 N   0  0  0  0  0  0  0  0  0  0  0  0
    6.5540   -5.4440   22.2430 C   0  0  0  0  0  0  0  0  0  0  0  0
    5.8260   -4.9630   23.4680 C   0  0  0  0  0  0  0  0  0  0  0  0
    6.5640   -3.8500   24.1580 C   0  0  0  0  0  0  0  0  0  0  0  0
    5.8650   -3.3430   25.3530 C   0  0  0  0  0  0  0  0  0  0  0  0
    4.5970   -3.3780   25.4170 O   0  0  0  0  0  0  0  0  0  0  0  0
    6.5530   -2.8020   26.4580 N   0  0  0  0  0  0  0  0  0  0  0  0
    6.1730   -3.1600   27.8390 C   0  0  0  0  0  0  0  0  0  0  0  0
    5.1610   -2.1670   28.2780 C   0  0  2  0  0  0  0  0  0  0  0  0
    4.9760   -1.0060   27.4000 C   0  0  0  0  0  0  0  0  0  0  0  0
    5.0160    0.1150   28.3900 C   0  0  2  0  0  0  0  0  0  0  0  0
    6.4140    0.2680   28.9460 C   0  0  0  0  0  0  0  0  0  0  0  0
    6.5160   -1.0180   29.6970 C   0  0  0  0  0  0  0  0  0  0  0  0
    5.3010   -1.6490   29.5440 C   0  0  1  0  0  0  0  0  0  0  0  0
    4.2870   -0.6800   29.4440 C   0  0  0  0  0  0  0  0  0  0  0  0
    6.8510   -2.6520   23.2500 C   0  0  0  0  0  0  0  0  0  0  0  0
    7.6750   -3.2200   22.1050 C   0  0  0  0  0  0  0  0  0  0  0  0
  1  2  1  0
  2  3  2  0
  2  4  1  0
  4  5  1  0
  5  6  1  0
  6  7  1  0
  7  8  1  0
  8  9  2  0
  8 10  1  0
 10 11  1  0
 12 11  1  6
 12 13  1  0
 14 13  1  6
 14 15  1  0
 15 16  1  0
 12 17  1  0
 17 16  1  6
 14 18  1  0
 17 18  1  0
  7 19  1  0
  4 20  1  0
 19 20  1  0
M  END
