piperidine-amides-26157-covalent
     RDKit          3D

 25 27  0  0  0  0  0  0  0  0999 V2000
    7.0810   -3.3170   19.2450 C   0  0  0  0  0  0  0  0  0  0  0  0
    6.3450   -4.1220   20.2260 C   0  0  0  0  0  0  0  0  0  0  0  0
    5.2680   -4.6410   19.9020 O   0  0  0  0  0  0  0  0  0  0  0  0
    6.8520   -4.3720   21.5060 N   0  0  0  0  0  0  0  0  0  0  0  0
    6.6090   -5.6250   22.1900 C   0  0  0  0  0  0  0  0  0  0  0  0
    6.1080   -5.3010   23.5820 C   0  0  0  0  0  0  0  0  0  0  0  0
    6.0690   -3.8260   23.8650 C   0  0  0  0  0  0  0  0  0  0  0  0
    5.6210   -3.4830   25.2260 C   0  0  0  0  0  0  0  0  0  0  0  0
    4.5160   -2.8870   25.3860 O   0  0  0  0  0  0  0  0  0  0  0  0
    6.3510   -3.7810   26.3880 N   0  0  0  0  0  0  0  0  0  0  0  0
    7.0110   -5.1120   26.4490 C   0  0  0  0  0  0  0  0  0  0  0  0
    7.2690   -5.5810   27.8360 C   0  0  0  0  0  0  0  0  0  0  0  0
    6.7510   -4.7500   28.9220 C   0  0  0  0  0  0  0  0  0  0  0  0
    5.4460   -4.1220   28.5850 C   0  0  1  0  0  0  0  0  0  0  0  0
    4.8040   -3.3830   29.6310 N   0  0  0  0  0  0  0  0  0  0  0  0
    3.7020   -3.9880   30.3120 C   0  0  0  0  0  0  0  0  0  0  0  0
    3.2610   -3.0050   31.3050 C   0  0  0  0  0  0  0  0  0  0  0  0
    4.1080   -1.9680   31.1150 N   0  0  0  0  0  0  0  0  0  0  0  0
    5.1250   -2.1460   30.0550 C   0  0  0  0  0  0  0  0  0  0  0  0
    6.1340   -1.2810   29.6120 C   0  0  0  0  0  0  0  0  0  0  0  0
    6.4130   -0.0760   30.4800 C   0  0  0  0  0  0  0  0  0  0  0  0
    5.5510    1.1630   30.2120 C   0  0  0  0  0  0  0  0  0  0  0  0
    5.8270   -3.1260   27.5650 C   0  0  0  0  0  0  0  0  0  0  0  0
    7.3890   -3.2690   23.5370 C   0  0  0  0  0  0  0  0  0  0  0  0
    7.5820   -3.2980   22.0960 C   0  0  0  0  0  0  0  0  0  0  0  0
  1  2  1  0
  2  3  2  0
  2  4  1  0
  4  5  1  0
  5  6  1  0
  6  7  1  0
  7  8  1  0
  8  9  2  0
  8 10  1  0
 10 11  1  0
 11 12  1  0
 12 13  1  0
 13 14  1  0
 14 15  1  1
 15 16  1  0
 16 17  2  0
 17 18  1  0
 15 19  1  0
 18 19  2  0
 19 20  1  0
 20 21  1  0
 21 22  1  0
 10 23  1  0
 14 23  1  0
  7 24  1  0
  4 25  1  0
 24 25  1  0
M  END
