piperidine-amides-35139-covalent
     RDKit          3D

 32 35  0  0  0  0  0  0  0  0999 V2000
    7.0600   -3.3110   19.2770 C   0  0  0  0  0  0  0  0  0  0  0  0
    6.4040   -4.1760   20.2970 C   0  0  0  0  0  0  0  0  0  0  0  0
    5.3780   -4.7640   19.9570 O   0  0  0  0  0  0  0  0  0  0  0  0
    6.9690   -4.3480   21.5660 N   0  0  0  0  0  0  0  0  0  0  0  0
    6.7550   -5.5690   22.2930 C   0  0  0  0  0  0  0  0  0  0  0  0
    6.4560   -5.2440   23.7320 C   0  0  0  0  0  0  0  0  0  0  0  0
    6.3980   -3.7270   23.9260 C   0  0  0  0  0  0  0  0  0  0  0  0
    6.1100   -3.4330   25.3360 C   0  0  0  0  0  0  0  0  0  0  0  0
    4.9310   -3.1700   25.6410 O   0  0  0  0  0  0  0  0  0  0  0  0
    7.0990   -3.4190   26.3530 N   0  0  0  0  0  0  0  0  0  0  0  0
    6.5620   -3.4300   27.6930 C   0  0  0  0  0  0  0  0  0  0  0  0
    7.6930   -4.0700   28.3750 C   0  0  0  0  0  0  0  0  0  0  0  0
    8.6390   -4.5770   27.5490 C   0  0  1  0  0  0  0  0  0  0  0  0
    9.8340   -4.9420   28.2410 C   0  0  0  0  0  0  0  0  0  0  0  0
   10.4180   -5.8820   28.7560 N   0  0  0  0  0  0  0  0  0  0  0  0
   12.2020   -6.0520   29.8640 C   0  0  0  0  0  0  0  0  0  0  0  0
   13.2350   -8.6750   30.9400 C   0  0  0  0  0  0  0  0  0  0  0  0
   12.7650   -9.7460   32.3510 C   0  0  0  0  0  0  0  0  0  0  0  0
   12.9210  -11.0370   33.1170 C   0  0  0  0  0  0  0  0  0  0  0  0
   13.7660  -11.9420   32.6530 C   0  0  0  0  0  0  0  0  0  0  0  0
   14.0650  -13.1850   33.1420 F   0  0  0  0  0  0  0  0  0  0  0  0
   14.2830  -11.3070   31.5610 C   0  0  0  0  0  0  0  0  0  0  0  0
   14.0900   -9.8260   30.8080 C   0  0  0  0  0  0  0  0  0  0  0  0
   12.0840   -4.5660   29.5140 N   0  0  0  0  0  0  0  0  0  0  0  0
   10.8530   -4.4010   28.7160 O   0  0  0  0  0  0  0  0  0  0  0  0
    8.0020   -5.9240   27.3620 C   0  0  0  0  0  0  0  0  0  0  0  0
    7.6160   -6.4540   28.5750 F   0  0  0  0  0  0  0  0  0  0  0  0
    6.9200   -5.8310   26.5150 F   0  0  0  0  0  0  0  0  0  0  0  0
    9.0260   -6.6520   26.8200 F   0  0  0  0  0  0  0  0  0  0  0  0
    8.5450   -3.8900   26.3430 C   0  0  0  0  0  0  0  0  0  0  0  0
    7.7040   -3.1220   23.5120 C   0  0  0  0  0  0  0  0  0  0  0  0
    7.8860   -3.3420   22.0430 C   0  0  0  0  0  0  0  0  0  0  0  0
  1  2  1  0
  2  3  2  0
  2  4  1  0
  4  5  1  0
  5  6  1  0
  6  7  1  0
  7  8  1  0
  8  9  2  0
  8 10  1  0
 10 11  1  0
 11 12  1  0
 12 13  1  0
 13 14  1  0
 14 15  2  0
 15 16  1  0
 16 17  1  0
 17 18  2  0
 18 19  1  0
 19 20  2  0
 20 21  1  0
 20 22  1  0
 17 23  1  0
 22 23  2  0
 16 24  2  0
 14 25  1  0
 24 25  1  0
 13 26  1  6
 26 27  1  0
 26 28  1  0
 26 29  1  0
 10 30  1  0
 13 30  1  0
  7 31  1  0
  4 32  1  0
 31 32  1  0
M  END
