piperidine-amides-35414-covalent
     RDKit          3D

 33 34  0  0  0  0  0  0  0  0999 V2000
    7.1350   -3.2680   19.2440 C   0  0  0  0  0  0  0  0  0  0  0  0
    6.4170   -4.0570   20.2790 C   0  0  0  0  0  0  0  0  0  0  0  0
    5.3730   -4.6140   19.9240 O   0  0  0  0  0  0  0  0  0  0  0  0
    6.9510   -4.1860   21.5740 N   0  0  0  0  0  0  0  0  0  0  0  0
    6.7090   -5.3810   22.3530 C   0  0  0  0  0  0  0  0  0  0  0  0
    6.1180   -4.9790   23.6700 C   0  0  0  0  0  0  0  0  0  0  0  0
    6.2630   -3.4680   23.7570 C   0  0  0  0  0  0  0  0  0  0  0  0
    5.6310   -2.9520   24.9770 C   0  0  0  0  0  0  0  0  0  0  0  0
    4.5990   -2.2880   24.8530 O   0  0  0  0  0  0  0  0  0  0  0  0
    6.1090   -3.2010   26.2620 N   0  0  0  0  0  0  0  0  0  0  0  0
    5.6970   -4.5320   26.6570 C   0  0  0  0  0  0  0  0  0  0  0  0
    5.5670   -4.6700   28.1340 C   0  0  0  0  0  0  0  0  0  0  0  0
    6.3960   -4.2720   29.1120 C   0  0  0  0  0  0  0  0  0  0  0  0
    6.2680   -5.6230   28.9260 C   0  0  0  0  0  0  0  0  0  0  0  0
    4.1250   -4.8220   28.4300 N   0  0  0  0  0  0  0  0  0  0  0  0
    3.8260   -5.0150   29.8310 C   0  0  0  0  0  0  0  0  0  0  0  0
    2.6420   -4.5900   30.3660 O   0  0  0  0  0  0  0  0  0  0  0  0
    4.6750   -5.6380   30.7080 O   0  0  0  0  0  0  0  0  0  0  0  0
    4.6280   -7.0210   30.9340 C   0  0  0  0  0  0  0  0  0  0  0  0
    5.5210   -7.6090   31.9790 C   0  0  0  0  0  0  0  0  0  0  0  0
    5.9150   -7.6660   30.4790 C   0  0  0  0  0  0  0  0  0  0  0  0
    3.4610   -7.8550   30.5250 C   0  0  0  0  0  0  0  0  0  0  0  0
    5.7740   -2.2460   27.3510 C   0  0  1  0  0  0  0  0  0  0  0  0
    6.9180   -1.6620   28.1590 C   0  0  0  0  0  0  0  0  0  0  0  0
    5.0350   -0.9680   26.9610 C   0  0  0  0  0  0  0  0  0  0  0  0
    3.5810   -1.3160   26.7380 C   0  0  0  0  0  0  0  0  0  0  0  0
    2.6580   -0.3650   26.3750 C   0  0  0  0  0  0  0  0  0  0  0  0
    3.1330    1.0510   26.2010 C   0  0  0  0  0  0  0  0  0  0  0  0
    4.5960    1.4550   26.4180 C   0  0  0  0  0  0  0  0  0  0  0  0
    5.1310    3.1000   26.2120 Cl  0  0  0  0  0  0  0  0  0  0  0  0
    5.5180    0.3050   26.8170 C   0  0  0  0  0  0  0  0  0  0  0  0
    7.6420   -2.9440   23.5470 C   0  0  0  0  0  0  0  0  0  0  0  0
    7.8450   -3.1180   22.0410 C   0  0  0  0  0  0  0  0  0  0  0  0
  1  2  1  0
  2  3  2  0
  2  4  1  0
  4  5  1  0
  5  6  1  0
  6  7  1  0
  7  8  1  0
  8  9  2  0
  8 10  1  0
 10 11  1  0
 11 12  1  0
 12 13  1  0
 12 14  1  0
 12 15  1  0
 15 16  1  0
 16 17  2  0
 16 18  1  0
 19 18  1  0
 19 20  1  0
 19 21  1  0
 19 22  1  0
 10 23  1  0
 23 24  1  6
 23 25  1  0
 25 26  2  0
 26 27  1  0
 27 28  2  0
 28 29  1  0
 29 30  1  0
 25 31  1  0
 29 31  2  0
  7 32  1  0
  4 33  1  0
 32 33  1  0
M  END
