piperidine-amides-30033-covalent
     RDKit          3D

 27 29  0  0  0  0  0  0  0  0999 V2000
    6.9970   -3.4160   19.4440 C   0  0  0  0  0  0  0  0  0  0  0  0
    6.3320   -4.2800   20.4210 C   0  0  0  0  0  0  0  0  0  0  0  0
    5.4120   -4.9920   20.0180 O   0  0  0  0  0  0  0  0  0  0  0  0
    6.7580   -4.3410   21.8080 N   0  0  0  0  0  0  0  0  0  0  0  0
    7.6100   -3.3050   22.3670 C   0  0  0  0  0  0  0  0  0  0  0  0
    7.1960   -2.9350   23.7790 C   0  0  0  0  0  0  0  0  0  0  0  0
    5.8410   -3.5770   24.0300 C   0  0  0  0  0  0  0  0  0  0  0  0
    5.0990   -3.0600   25.2680 C   0  0  0  0  0  0  0  0  0  0  0  0
    4.3650   -2.0760   25.1590 O   0  0  0  0  0  0  0  0  0  0  0  0
    5.1580   -3.6300   26.5880 N   0  0  0  0  0  0  0  0  0  0  0  0
    4.5460   -2.9200   27.6850 C   0  0  0  0  0  0  0  0  0  0  0  0
    4.5760   -3.8290   28.9120 C   0  0  0  0  0  0  0  0  0  0  0  0
    5.5180   -4.7560   29.1330 N   0  0  0  0  0  0  0  0  0  0  0  0
    4.9750   -5.9840   29.2290 C   0  0  0  0  0  0  0  0  0  0  0  0
    5.1640   -6.8670   30.2860 C   0  0  0  0  0  0  0  0  0  0  0  0
    6.3830   -7.5690   30.3120 O   0  0  0  0  0  0  0  0  0  0  0  0
    6.5530   -8.5210   31.3410 C   0  0  0  0  0  0  0  0  0  0  0  0
    5.8690   -8.1030   32.5890 C   0  0  0  0  0  0  0  0  0  0  0  0
    5.8690   -8.8660   33.7420 C   0  0  0  0  0  0  0  0  0  0  0  0
    6.5350  -10.0780   33.7270 C   0  0  0  0  0  0  0  0  0  0  0  0
    7.2140  -10.5910   32.6220 C   0  0  0  0  0  0  0  0  0  0  0  0
    7.2860   -9.8550   31.3230 C   0  0  0  0  0  0  0  0  0  0  0  0
    7.9410  -10.4390   30.2480 C   0  0  0  0  0  0  0  0  0  0  0  0
    6.5460   -4.6280   28.1900 C   0  0  0  0  0  0  0  0  0  0  0  0
    6.3280   -4.2770   26.7610 C   0  0  0  0  0  0  0  0  0  0  0  0
    5.8870   -5.0700   23.9340 C   0  0  0  0  0  0  0  0  0  0  0  0
    6.4790   -5.5180   22.5970 C   0  0  0  0  0  0  0  0  0  0  0  0
  1  2  1  0
  2  3  2  0
  2  4  1  0
  4  5  1  0
  5  6  1  0
  6  7  1  0
  7  8  1  0
  8  9  2  0
  8 10  1  0
 10 11  1  0
 11 12  1  0
 12 13  1  0
 13 14  1  0
 14 15  1  0
 15 16  1  0
 16 17  1  0
 17 18  2  0
 18 19  1  0
 19 20  2  0
 20 21  1  0
 17 22  1  0
 21 22  2  0
 22 23  1  0
 13 24  1  0
 10 25  1  0
 24 25  1  0
  7 26  1  0
  4 27  1  0
 26 27  1  0
M  END
