piperidine-amides-13690-covalent
     RDKit          3D

 32 34  0  0  0  0  0  0  0  0999 V2000
    7.1180   -3.2650   19.1900 C   0  0  0  0  0  0  0  0  0  0  0  0
    6.3410   -4.0440   20.1930 C   0  0  0  0  0  0  0  0  0  0  0  0
    5.2570   -4.5520   19.8730 O   0  0  0  0  0  0  0  0  0  0  0  0
    6.8890   -4.2250   21.4710 N   0  0  0  0  0  0  0  0  0  0  0  0
    7.6830   -3.1850   22.0910 C   0  0  0  0  0  0  0  0  0  0  0  0
    7.3820   -3.1810   23.5890 C   0  0  0  0  0  0  0  0  0  0  0  0
    6.0110   -3.7320   23.7720 C   0  0  0  0  0  0  0  0  0  0  0  0
    5.4010   -3.2900   25.0320 C   0  0  0  0  0  0  0  0  0  0  0  0
    4.2830   -3.7350   25.3090 O   0  0  0  0  0  0  0  0  0  0  0  0
    6.0950   -2.4000   25.8280 N   0  0  0  0  0  0  0  0  0  0  0  0
    6.5640   -2.6260   27.1240 C   0  0  1  0  0  0  0  0  0  0  0  0
    7.7470   -3.2750   27.3190 C   0  0  0  0  0  0  0  0  0  0  0  0
    8.2010   -3.1340   28.6720 O   0  0  0  0  0  0  0  0  0  0  0  0
    8.4380   -4.0050   26.3570 O   0  0  0  0  0  0  0  0  0  0  0  0
    8.7130   -5.3770   26.6360 C   0  0  0  0  0  0  0  0  0  0  0  0
    8.3650   -5.6040   27.9390 C   0  0  0  0  0  0  0  0  0  0  0  0
    6.4220   -1.2380   27.6630 C   0  0  0  0  0  0  0  0  0  0  0  0
    7.3610   -0.3790   28.4610 C   0  0  0  0  0  0  0  0  0  0  0  0
    8.7070   -0.9560   28.8190 C   0  0  0  0  0  0  0  0  0  0  0  0
    6.8110    0.8730   28.7510 N   0  0  0  0  0  0  0  0  0  0  0  0
    5.6040    0.8330   28.1760 N   0  0  0  0  0  0  0  0  0  0  0  0
    4.9690    1.9850   28.3680 C   0  0  0  0  0  0  0  0  0  0  0  0
    5.6650    3.2640   28.0970 C   0  0  0  0  0  0  0  0  0  0  0  0
    4.7040    4.2970   28.6730 C   0  0  0  0  0  0  0  0  0  0  0  0
    4.6890    5.7110   28.7850 C   0  0  0  0  0  0  0  0  0  0  0  0
    6.0910    5.9440   28.0720 C   0  0  0  0  0  0  0  0  0  0  0  0
    7.0860    4.9710   27.4810 C   0  0  0  0  0  0  0  0  0  0  0  0
    6.8360    3.5150   27.5040 C   0  0  0  0  0  0  0  0  0  0  0  0
    5.3370   -0.3380   27.5510 C   0  0  0  0  0  0  0  0  0  0  0  0
    4.1590   -0.6350   26.8800 C   0  0  0  0  0  0  0  0  0  0  0  0
    5.9230   -5.1900   23.4600 C   0  0  0  0  0  0  0  0  0  0  0  0
    6.5690   -5.4460   22.1370 C   0  0  0  0  0  0  0  0  0  0  0  0
  1  2  1  0
  2  3  2  0
  2  4  1  0
  4  5  1  0
  5  6  1  0
  6  7  1  0
  7  8  1  0
  8  9  2  0
  8 10  1  0
 11 10  1  6
 11 12  1  0
 12 13  2  0
 12 14  1  0
 14 15  1  0
 15 16  1  0
 11 17  1  0
 17 18  1  0
 18 19  1  0
 18 20  2  0
 20 21  1  0
 21 22  1  0
 22 23  1  0
 23 24  2  0
 24 25  1  0
 25 26  2  0
 26 27  1  0
 23 28  1  0
 27 28  2  0
 17 29  2  0
 21 29  1  0
 29 30  1  0
  7 31  1  0
  4 32  1  0
 31 32  1  0
M  END
