piperidine-amides-19394-covalent
     RDKit          3D

 20 21  0  0  0  0  0  0  0  0999 V2000
    7.0530   -3.3320   19.2450 C   0  0  0  0  0  0  0  0  0  0  0  0
    6.3200   -4.0370   20.2760 C   0  0  0  0  0  0  0  0  0  0  0  0
    5.2760   -4.6560   19.9200 O   0  0  0  0  0  0  0  0  0  0  0  0
    6.7240   -4.1180   21.6270 N   0  0  0  0  0  0  0  0  0  0  0  0
    6.6300   -5.4710   22.2390 C   0  0  0  0  0  0  0  0  0  0  0  0
    6.0940   -5.1400   23.6830 C   0  0  0  0  0  0  0  0  0  0  0  0
    5.9750   -3.6420   23.7230 C   0  0  0  0  0  0  0  0  0  0  0  0
    5.0620   -3.1350   24.9220 C   0  0  0  0  0  0  0  0  0  0  0  0
    3.9020   -3.4660   24.7480 O   0  0  0  0  0  0  0  0  0  0  0  0
    5.7560   -2.5110   25.7710 N   0  0  0  0  0  0  0  0  0  0  0  0
    6.6790   -2.0660   26.5890 C   0  0  0  0  0  0  0  0  0  0  0  0
    6.2070   -1.2920   27.4840 C   0  0  0  0  0  0  0  0  0  0  0  0
    6.1370   -1.8460   28.7630 O   0  0  0  0  0  0  0  0  0  0  0  0
    6.1460   -0.7250   30.0060 S   0  0  0  0  0  0  0  0  0  0  0  0
    7.7780   -0.4680   30.5560 C   0  0  0  0  0  0  0  0  0  0  0  0
    5.5280    0.5850   29.6300 O   0  0  0  0  0  0  0  0  0  0  0  0
    5.3390   -1.2660   31.1480 O   0  0  0  0  0  0  0  0  0  0  0  0
    4.9210   -1.5320   26.6560 C   0  0  0  0  0  0  0  0  0  0  0  0
    7.2820   -2.8970   23.5420 C   0  0  0  0  0  0  0  0  0  0  0  0
    7.6340   -3.1380   22.2120 C   0  0  0  0  0  0  0  0  0  0  0  0
  1  2  1  0
  2  3  2  0
  2  4  1  0
  4  5  1  0
  5  6  1  0
  6  7  1  0
  7  8  1  0
  8  9  2  0
  8 10  1  0
 10 11  1  0
 11 12  1  0
 12 13  1  0
 14 13  1  0
 14 15  1  0
 14 16  2  0
 14 17  2  0
 10 18  1  0
 12 18  1  0
  7 19  1  0
  4 20  1  0
 19 20  1  0
M  END
