piperidine-amides-24600-covalent
     RDKit          3D

 23 25  0  0  0  0  0  0  0  0999 V2000
    7.1610   -3.3040   19.2980 C   0  0  0  0  0  0  0  0  0  0  0  0
    6.4180   -4.1260   20.2610 C   0  0  0  0  0  0  0  0  0  0  0  0
    5.3390   -4.6660   19.9340 O   0  0  0  0  0  0  0  0  0  0  0  0
    6.9430   -4.3710   21.5330 N   0  0  0  0  0  0  0  0  0  0  0  0
    6.7170   -5.6670   22.1130 C   0  0  0  0  0  0  0  0  0  0  0  0
    5.8210   -5.4010   23.2980 C   0  0  0  0  0  0  0  0  0  0  0  0
    6.5050   -4.3330   24.1090 C   0  0  0  0  0  0  0  0  0  0  0  0
    5.6040   -4.0830   25.2200 C   0  0  0  0  0  0  0  0  0  0  0  0
    4.3810   -4.1380   24.9820 O   0  0  0  0  0  0  0  0  0  0  0  0
    6.0210   -3.7480   26.5000 N   0  0  0  0  0  0  0  0  0  0  0  0
    5.2870   -4.4020   27.5340 C   0  0  0  0  0  0  0  0  0  0  0  0
    6.1370   -4.8710   28.6870 C   0  0  1  0  0  0  0  0  0  0  0  0
    6.7620   -6.0800   28.6690 C   0  0  0  0  0  0  0  0  0  0  0  0
    7.1250   -3.8720   28.7710 O   0  0  0  0  0  0  0  0  0  0  0  0
    6.4910   -2.7610   28.2790 C   0  0  0  0  0  0  0  0  0  0  0  0
    6.2460   -1.4040   28.7460 C   0  0  0  0  0  0  0  0  0  0  0  0
    6.9970   -1.2190   30.3170 Cl  0  0  0  0  0  0  0  0  0  0  0  0
    5.9510   -2.1000   27.6910 C   0  0  0  0  0  0  0  0  0  0  0  0
    6.7760   -2.6720   28.9220 C   0  0  0  0  0  0  0  0  0  0  0  0
    6.0330   -1.6570   28.1950 C   0  0  0  0  0  0  0  0  0  0  0  0
    5.7950   -2.4620   27.0730 C   0  0  0  0  0  0  0  0  0  0  0  0
    6.6580   -3.0420   23.3240 C   0  0  0  0  0  0  0  0  0  0  0  0
    7.5800   -3.3330   22.3210 C   0  0  0  0  0  0  0  0  0  0  0  0
  1  2  1  0
  2  3  2  0
  2  4  1  0
  4  5  1  0
  5  6  1  0
  6  7  1  0
  7  8  1  0
  8  9  2  0
  8 10  1  0
 10 11  1  0
 11 12  1  0
 12 13  1  6
 12 14  1  0
 14 15  1  0
 15 16  2  0
 16 17  1  0
 16 18  1  0
 18 19  2  0
 19 20  1  0
 10 21  1  0
 15 21  1  0
 20 21  2  0
  7 22  1  0
  4 23  1  0
 22 23  1  0
M  END
