piperidine-amides-29679-covalent
     RDKit          3D

 27 29  0  0  0  0  0  0  0  0999 V2000
    7.0480   -3.3860   19.3910 C   0  0  0  0  0  0  0  0  0  0  0  0
    6.3620   -4.2070   20.3810 C   0  0  0  0  0  0  0  0  0  0  0  0
    5.4140   -4.9040   20.0090 O   0  0  0  0  0  0  0  0  0  0  0  0
    6.8100   -4.2450   21.7600 N   0  0  0  0  0  0  0  0  0  0  0  0
    7.7170   -3.2270   22.2680 C   0  0  0  0  0  0  0  0  0  0  0  0
    7.4750   -2.9590   23.7340 C   0  0  0  0  0  0  0  0  0  0  0  0
    6.1040   -3.5260   24.0250 C   0  0  0  0  0  0  0  0  0  0  0  0
    5.4850   -3.0670   25.3210 C   0  0  0  0  0  0  0  0  0  0  0  0
    4.3100   -2.6580   25.3130 O   0  0  0  0  0  0  0  0  0  0  0  0
    6.1320   -3.0740   26.5950 N   0  0  0  0  0  0  0  0  0  0  0  0
    6.3320   -1.7760   27.2070 C   0  0  0  0  0  0  0  0  0  0  0  0
    5.8040   -0.5700   26.5000 C   0  0  0  0  0  0  0  0  0  0  0  0
    5.9620    0.6670   27.1080 C   0  0  0  0  0  0  0  0  0  0  0  0
    6.6050    0.7970   28.3650 C   0  0  0  0  0  0  0  0  0  0  0  0
    6.7430    2.0400   28.9440 C   0  0  0  0  0  0  0  0  0  0  0  0
    7.0860   -0.3460   28.9790 C   0  0  0  0  0  0  0  0  0  0  0  0
    6.9520   -1.5800   28.4170 C   0  0  0  0  0  0  0  0  0  0  0  0
    5.4700   -3.8100   27.6570 C   0  0  2  0  0  0  0  0  0  0  0  0
    6.1190   -4.3270   28.7710 C   0  0  0  0  0  0  0  0  0  0  0  0
    5.3550   -5.5180   28.8260 C   0  0  0  0  0  0  0  0  0  0  0  0
    5.6210   -6.2000   29.8210 O   0  0  0  0  0  0  0  0  0  0  0  0
    4.5480   -6.0410   28.2370 N   0  0  0  0  0  0  0  0  0  0  0  0
    5.1190   -7.1480   27.6130 C   0  0  0  0  0  0  0  0  0  0  0  0
    4.5750   -4.9690   27.2580 C   0  0  0  0  0  0  0  0  0  0  0  0
    3.9170   -4.9870   26.1860 O   0  0  0  0  0  0  0  0  0  0  0  0
    6.1240   -5.0320   23.9320 C   0  0  0  0  0  0  0  0  0  0  0  0
    6.6490   -5.4510   22.5430 C   0  0  0  0  0  0  0  0  0  0  0  0
  1  2  1  0
  2  3  2  0
  2  4  1  0
  4  5  1  0
  5  6  1  0
  6  7  1  0
  7  8  1  0
  8  9  2  0
  8 10  1  0
 10 11  1  0
 11 12  2  0
 12 13  1  0
 13 14  2  0
 14 15  1  0
 14 16  1  0
 11 17  1  0
 16 17  2  0
 18 10  1  6
 18 19  1  0
 19 20  1  0
 20 21  2  0
 20 22  1  0
 22 23  1  0
 18 24  1  0
 22 24  1  0
 24 25  2  0
  7 26  1  0
  4 27  1  0
 26 27  1  0
M  END
