piperidine-amides-2027-covalent
     RDKit          3D

 27 29  0  0  0  0  0  0  0  0999 V2000
    7.0900   -3.3170   19.2750 C   0  0  0  0  0  0  0  0  0  0  0  0
    6.3890   -4.1650   20.2720 C   0  0  0  0  0  0  0  0  0  0  0  0
    5.3380   -4.7000   19.9320 O   0  0  0  0  0  0  0  0  0  0  0  0
    6.9660   -4.3660   21.5210 N   0  0  0  0  0  0  0  0  0  0  0  0
    7.7450   -3.3370   22.1520 C   0  0  0  0  0  0  0  0  0  0  0  0
    6.9260   -2.7580   23.2460 C   0  0  0  0  0  0  0  0  0  0  0  0
    6.6150   -3.8730   24.2240 C   0  0  0  0  0  0  0  0  0  0  0  0
    5.9550   -3.2470   25.3760 C   0  0  0  0  0  0  0  0  0  0  0  0
    4.8140   -3.6040   25.7130 O   0  0  0  0  0  0  0  0  0  0  0  0
    6.6210   -2.2250   26.0800 N   0  0  0  0  0  0  0  0  0  0  0  0
    5.9690   -1.6360   27.2150 C   0  0  1  0  0  0  0  0  0  0  0  0
    7.0300   -1.3000   28.2340 C   0  0  0  0  0  0  0  0  0  0  0  0
    6.8050   -0.1240   28.7600 C   0  0  0  0  0  0  0  0  0  0  0  0
    7.4850    0.4120   29.6720 O   0  0  0  0  0  0  0  0  0  0  0  0
    5.7250    0.5000   28.1820 N   0  0  0  0  0  0  0  0  0  0  0  0
    5.6540    1.9430   28.1260 C   0  0  0  0  0  0  0  0  0  0  0  0
    5.2140   -0.2910   27.0640 C   0  0  1  0  0  0  0  0  0  0  0  0
    5.5930    0.2270   25.6800 C   0  0  0  0  0  0  0  0  0  0  0  0
    5.0550   -0.7230   24.6690 C   0  0  0  0  0  0  0  0  0  0  0  0
    5.3030   -0.4090   23.2100 C   0  0  0  0  0  0  0  0  0  0  0  0
    6.0680    0.8300   22.8390 C   0  0  0  0  0  0  0  0  0  0  0  0
    6.3600    1.2110   21.1500 Cl  0  0  0  0  0  0  0  0  0  0  0  0
    6.5710    1.7320   23.9180 C   0  0  0  0  0  0  0  0  0  0  0  0
    7.2520    2.8310   23.5020 F   0  0  0  0  0  0  0  0  0  0  0  0
    6.3630    1.4800   25.3970 C   0  0  0  0  0  0  0  0  0  0  0  0
    5.7570   -4.9170   23.5460 C   0  0  0  0  0  0  0  0  0  0  0  0
    6.5240   -5.4550   22.3650 C   0  0  0  0  0  0  0  0  0  0  0  0
  1  2  1  0
  2  3  2  0
  2  4  1  0
  4  5  1  0
  5  6  1  0
  6  7  1  0
  7  8  1  0
  8  9  2  0
  8 10  1  0
 11 10  1  6
 11 12  1  0
 12 13  1  0
 13 14  2  0
 13 15  1  0
 15 16  1  0
 11 17  1  0
 15 17  1  0
 17 18  1  6
 18 19  2  0
 19 20  1  0
 20 21  2  0
 21 22  1  0
 21 23  1  0
 23 24  1  0
 18 25  1  0
 23 25  2  0
  7 26  1  0
  4 27  1  0
 26 27  1  0
M  END
