piperidine-amides-6597-covalent
     RDKit          3D

 24 25  0  0  0  0  0  0  0  0999 V2000
    7.1340   -3.2760   19.2370 C   0  0  0  0  0  0  0  0  0  0  0  0
    6.4070   -4.0690   20.2390 C   0  0  0  0  0  0  0  0  0  0  0  0
    5.3480   -4.6610   19.9310 O   0  0  0  0  0  0  0  0  0  0  0  0
    6.9240   -4.2090   21.5330 N   0  0  0  0  0  0  0  0  0  0  0  0
    7.6860   -3.1210   22.0960 C   0  0  0  0  0  0  0  0  0  0  0  0
    6.8310   -2.5640   23.2270 C   0  0  0  0  0  0  0  0  0  0  0  0
    6.6190   -3.7110   24.1900 C   0  0  0  0  0  0  0  0  0  0  0  0
    5.8460   -3.2350   25.3490 C   0  0  0  0  0  0  0  0  0  0  0  0
    4.9630   -2.3700   25.1730 O   0  0  0  0  0  0  0  0  0  0  0  0
    6.1080   -3.7850   26.6220 N   0  0  0  0  0  0  0  0  0  0  0  0
    5.7890   -5.1700   26.7870 C   0  0  0  0  0  0  0  0  0  0  0  0
    6.2150   -5.6740   28.1510 C   0  0  0  0  0  0  0  0  0  0  0  0
    5.2970   -6.3670   28.8890 C   0  0  0  0  0  0  0  0  0  0  0  0
    5.6070   -6.8370   30.1990 C   0  0  0  0  0  0  0  0  0  0  0  0
    4.7810   -7.5710   31.1150 C   0  0  0  0  0  0  0  0  0  0  0  0
    3.5130   -7.8970   30.7410 C   0  0  0  0  0  0  0  0  0  0  0  0
    3.2640   -7.3930   29.4020 C   0  0  0  0  0  0  0  0  0  0  0  0
    1.8690   -7.9820   29.5000 C   0  0  0  0  0  0  0  0  0  0  0  0
    1.1470   -7.9640   28.4670 O   0  0  0  0  0  0  0  0  0  0  0  0
    1.3410   -8.5610   30.7550 N   0  0  0  0  0  0  0  0  0  0  0  0
    0.6990   -9.8350   30.4050 C   0  0  0  0  0  0  0  0  0  0  0  0
    3.9830   -6.6870   28.4540 C   0  0  0  0  0  0  0  0  0  0  0  0
    5.8460   -4.8140   23.5150 C   0  0  0  0  0  0  0  0  0  0  0  0
    6.4200   -5.2550   22.3600 C   0  0  0  0  0  0  0  0  0  0  0  0
  1  2  1  0
  2  3  2  0
  2  4  1  0
  4  5  1  0
  5  6  1  0
  6  7  1  0
  7  8  1  0
  8  9  2  0
  8 10  1  0
 10 11  1  0
 11 12  1  0
 12 13  1  0
 13 14  2  0
 14 15  1  0
 15 16  2  0
 16 17  1  0
 17 18  1  0
 18 19  2  0
 18 20  1  0
 20 21  1  0
 13 22  1  0
 17 22  2  0
  7 23  1  0
  4 24  1  0
 23 24  1  0
M  END
