piperidine-amides-28834-covalent
     RDKit          3D

 25 27  0  0  0  0  0  0  0  0999 V2000
    7.0910   -3.3380   19.3110 C   0  0  0  0  0  0  0  0  0  0  0  0
    6.4360   -4.1800   20.3070 C   0  0  0  0  0  0  0  0  0  0  0  0
    5.3880   -4.7670   19.9690 O   0  0  0  0  0  0  0  0  0  0  0  0
    7.0150   -4.3670   21.5900 N   0  0  0  0  0  0  0  0  0  0  0  0
    6.4750   -5.3960   22.4080 C   0  0  0  0  0  0  0  0  0  0  0  0
    5.5850   -4.7440   23.4220 C   0  0  0  0  0  0  0  0  0  0  0  0
    6.4520   -3.8370   24.2840 C   0  0  0  0  0  0  0  0  0  0  0  0
    5.6000   -3.1950   25.3440 C   0  0  0  0  0  0  0  0  0  0  0  0
    4.5540   -2.7050   24.9320 O   0  0  0  0  0  0  0  0  0  0  0  0
    6.0010   -3.1720   26.6860 N   0  0  0  0  0  0  0  0  0  0  0  0
    6.1380   -4.4190   27.3850 C   0  0  0  0  0  0  0  0  0  0  0  0
    5.0430   -4.9370   28.0650 C   0  0  0  0  0  0  0  0  0  0  0  0
    4.2350   -5.6630   27.0610 N   0  0  0  0  0  0  0  0  0  0  0  0
    3.5620   -5.3250   25.8640 C   0  0  0  0  0  0  0  0  0  0  0  0
    2.9340   -6.4170   25.2890 C   0  0  0  0  0  0  0  0  0  0  0  0
    3.1420   -7.5490   26.0610 N   0  0  0  0  0  0  0  0  0  0  0  0
    3.9490   -7.0900   27.1580 C   0  0  0  0  0  0  0  0  0  0  0  0
    5.8470   -1.9200   27.4000 C   0  0  0  0  0  0  0  0  0  0  0  0
    6.5420   -2.1080   28.7300 C   0  0  0  0  0  0  0  0  0  0  0  0
    7.3440   -0.8860   29.0850 C   0  0  0  0  0  0  0  0  0  0  0  0
    6.3240    0.5540   28.8950 S   0  0  0  0  0  0  0  0  0  0  0  0
    5.8890    0.3510   27.1880 C   0  0  0  0  0  0  0  0  0  0  0  0
    6.1360   -0.8400   26.5510 C   0  0  0  0  0  0  0  0  0  0  0  0
    7.0180   -2.7450   23.4230 C   0  0  0  0  0  0  0  0  0  0  0  0
    7.6970   -3.2340   22.1760 C   0  0  0  0  0  0  0  0  0  0  0  0
  1  2  1  0
  2  3  2  0
  2  4  1  0
  4  5  1  0
  5  6  1  0
  6  7  1  0
  7  8  1  0
  8  9  2  0
  8 10  1  0
 10 11  1  0
 11 12  1  0
 12 13  1  0
 13 14  1  0
 14 15  2  0
 15 16  1  0
 13 17  1  0
 16 17  2  0
 10 18  1  0
 18 19  1  0
 19 20  1  0
 20 21  1  0
 21 22  1  0
 18 23  1  0
 22 23  1  0
  7 24  1  0
  4 25  1  0
 24 25  1  0
M  END
