piperidine-amides-32216-covalent
     RDKit          3D

 26 29  0  0  0  0  0  0  0  0999 V2000
    7.1820   -4.0360   19.6330 C   0  0  0  0  0  0  0  0  0  0  0  0
    5.9580   -3.9560   20.3100 C   0  0  0  0  0  0  0  0  0  0  0  0
    4.9540   -4.0210   19.6070 O   0  0  0  0  0  0  0  0  0  0  0  0
    6.0710   -3.9440   21.6830 N   0  0  0  0  0  0  0  0  0  0  0  0
    6.0050   -5.2330   22.3260 C   0  0  0  0  0  0  0  0  0  0  0  0
    5.6080   -4.9850   23.7600 C   0  0  0  0  0  0  0  0  0  0  0  0
    6.6990   -4.1860   24.3750 C   0  0  0  0  0  0  0  0  0  0  0  0
    6.2830   -3.7100   25.6830 C   0  0  0  0  0  0  0  0  0  0  0  0
    5.2890   -2.9620   25.7090 O   0  0  0  0  0  0  0  0  0  0  0  0
    6.9980   -4.1340   26.7950 N   0  0  0  0  0  0  0  0  0  0  0  0
    6.5900   -5.2680   27.5660 C   0  0  0  0  0  0  0  0  0  0  0  0
    5.8200   -5.1180   28.6830 C   0  0  0  0  0  0  0  0  0  0  0  0
    5.7340   -3.7970   28.9830 C   0  0  0  0  0  0  0  0  0  0  0  0
    4.7630   -3.2210   29.9030 N   0  0  0  0  0  0  0  0  0  0  0  0
    4.9150   -1.8800   29.9910 C   0  0  0  0  0  0  0  0  0  0  0  0
    4.2870   -0.7650   30.7090 C   0  0  0  0  0  0  0  0  0  0  0  0
    2.9450   -1.0110   31.8210 Cl  0  0  0  0  0  0  0  0  0  0  0  0
    4.8680    0.6410   30.4370 C   0  0  0  0  0  0  0  0  0  0  0  0
    6.0590    0.7590   29.4340 C   0  0  0  0  0  0  0  0  0  0  0  0
    6.6940    2.3880   29.1440 Cl  0  0  0  0  0  0  0  0  0  0  0  0
    6.5750   -0.3870   28.8080 C   0  0  0  0  0  0  0  0  0  0  0  0
    5.9380   -1.6620   29.1520 C   0  0  0  0  0  0  0  0  0  0  0  0
    6.5610   -2.8500   28.4310 C   0  0  0  0  0  0  0  0  0  0  0  0
    7.5540   -3.0050   27.5450 C   0  0  0  0  0  0  0  0  0  0  0  0
    7.1410   -2.9600   23.6440 C   0  0  0  0  0  0  0  0  0  0  0  0
    7.1880   -3.1330   22.1600 C   0  0  0  0  0  0  0  0  0  0  0  0
  1  2  1  0
  2  3  2  0
  2  4  1  0
  4  5  1  0
  5  6  1  0
  6  7  1  0
  7  8  1  0
  8  9  2  0
  8 10  1  0
 10 11  1  0
 11 12  1  0
 12 13  1  0
 13 14  1  0
 14 15  1  0
 15 16  2  0
 16 17  1  0
 16 18  1  0
 18 19  2  0
 19 20  1  0
 19 21  1  0
 15 22  1  0
 21 22  2  0
 13 23  2  0
 22 23  1  0
 10 24  1  0
 23 24  1  0
  7 25  1  0
  4 26  1  0
 25 26  1  0
M  END
