piperidine-amides-3157-covalent
     RDKit          3D

 23 24  0  0  0  0  0  0  0  0999 V2000
    7.0370   -3.3150   19.3010 C   0  0  0  0  0  0  0  0  0  0  0  0
    6.3320   -4.1120   20.3030 C   0  0  0  0  0  0  0  0  0  0  0  0
    5.3440   -4.7610   19.9630 O   0  0  0  0  0  0  0  0  0  0  0  0
    6.8050   -4.1880   21.6650 N   0  0  0  0  0  0  0  0  0  0  0  0
    6.6390   -5.4290   22.3860 C   0  0  0  0  0  0  0  0  0  0  0  0
    6.0840   -5.1570   23.7550 C   0  0  0  0  0  0  0  0  0  0  0  0
    6.1250   -3.6570   23.9460 C   0  0  0  0  0  0  0  0  0  0  0  0
    5.6230   -3.2360   25.2920 C   0  0  0  0  0  0  0  0  0  0  0  0
    4.5280   -2.6620   25.4140 O   0  0  0  0  0  0  0  0  0  0  0  0
    6.3780   -3.4890   26.4670 N   0  0  0  0  0  0  0  0  0  0  0  0
    5.7900   -4.3310   27.4940 C   0  0  0  0  0  0  0  0  0  0  0  0
    5.5980   -5.7030   26.9140 C   0  0  0  0  0  0  0  0  0  0  0  0
    6.6790   -4.5490   28.6460 C   0  0  0  0  0  0  0  0  0  0  0  0
    4.5150   -3.7710   27.9770 C   0  0  0  0  0  0  0  0  0  0  0  0
    3.2540   -4.1620   27.5220 C   0  0  0  0  0  0  0  0  0  0  0  0
    2.0130   -3.5820   28.0320 C   0  0  0  0  0  0  0  0  0  0  0  0
    1.8830   -2.6180   28.9850 C   0  0  0  0  0  0  0  0  0  0  0  0
    0.7890   -2.0800   29.4620 O   0  0  0  0  0  0  0  0  0  0  0  0
    0.2120   -1.1170   30.3380 C   0  0  0  0  0  0  0  0  0  0  0  0
    3.2460   -2.2060   29.4630 C   0  0  0  0  0  0  0  0  0  0  0  0
    4.4940   -2.7790   28.9600 C   0  0  0  0  0  0  0  0  0  0  0  0
    7.4890   -3.0860   23.6040 C   0  0  0  0  0  0  0  0  0  0  0  0
    7.6430   -3.1370   22.2130 C   0  0  0  0  0  0  0  0  0  0  0  0
  1  2  1  0
  2  3  2  0
  2  4  1  0
  4  5  1  0
  5  6  1  0
  6  7  1  0
  7  8  1  0
  8  9  2  0
  8 10  1  0
 11 10  1  0
 11 12  1  0
 11 13  1  0
 11 14  1  0
 14 15  2  0
 15 16  1  0
 16 17  2  0
 17 18  1  0
 18 19  1  0
 17 20  1  0
 14 21  1  0
 20 21  2  0
  7 22  1  0
  4 23  1  0
 22 23  1  0
M  END
