piperidine-amides-8621-covalent
     RDKit          3D

 23 24  0  0  0  0  0  0  0  0999 V2000
    7.1230   -3.3010   19.2100 C   0  0  0  0  0  0  0  0  0  0  0  0
    6.4260   -4.0780   20.2340 C   0  0  0  0  0  0  0  0  0  0  0  0
    5.3610   -4.6440   19.9280 O   0  0  0  0  0  0  0  0  0  0  0  0
    7.0100   -4.2150   21.5200 N   0  0  0  0  0  0  0  0  0  0  0  0
    7.7010   -3.0930   22.0640 C   0  0  0  0  0  0  0  0  0  0  0  0
    6.8120   -2.4820   23.0940 C   0  0  0  0  0  0  0  0  0  0  0  0
    6.6230   -3.5270   24.1570 C   0  0  0  0  0  0  0  0  0  0  0  0
    5.8470   -2.9200   25.2880 C   0  0  0  0  0  0  0  0  0  0  0  0
    4.6840   -2.6000   25.0720 O   0  0  0  0  0  0  0  0  0  0  0  0
    6.5040   -2.7650   26.4950 N   0  0  0  0  0  0  0  0  0  0  0  0
    6.9110   -3.9220   27.1920 C   0  0  0  0  0  0  0  0  0  0  0  0
    6.1950   -4.1930   28.3590 C   0  0  1  0  0  0  0  0  0  0  0  0
    5.4220   -3.3040   28.7820 O   0  0  0  0  0  0  0  0  0  0  0  0
    5.3480   -5.2740   28.2700 C   0  0  0  0  0  0  0  0  0  0  0  0
    5.7730   -6.3770   27.5500 C   0  0  0  0  0  0  0  0  0  0  0  0
    7.1180   -5.8830   27.1130 C   0  0  0  0  0  0  0  0  0  0  0  0
    8.2230   -5.7260   28.1550 C   0  0  0  0  0  0  0  0  0  0  0  0
    9.5740   -5.2400   27.8500 C   0  0  0  0  0  0  0  0  0  0  0  0
    9.9190   -4.8720   26.4490 C   0  0  0  0  0  0  0  0  0  0  0  0
    8.7680   -5.0480   25.4340 C   0  0  0  0  0  0  0  0  0  0  0  0
    7.4900   -5.5030   25.6920 C   0  0  0  0  0  0  0  0  0  0  0  0
    5.8460   -4.6840   23.5660 C   0  0  0  0  0  0  0  0  0  0  0  0
    6.5170   -5.2810   22.3520 C   0  0  0  0  0  0  0  0  0  0  0  0
  1  2  1  0
  2  3  2  0
  2  4  1  0
  4  5  1  0
  5  6  1  0
  6  7  1  0
  7  8  1  0
  8  9  2  0
  8 10  1  0
 10 11  1  0
 11 12  1  0
 12 13  1  6
 12 14  1  0
 14 15  1  0
 15 16  1  0
 16 17  2  0
 17 18  1  0
 18 19  2  0
 19 20  1  0
 16 21  1  0
 20 21  2  0
  7 22  1  0
  4 23  1  0
 22 23  1  0
M  END
