piperidine-amides-30501-covalent
     RDKit          3D

 28 30  0  0  0  0  0  0  0  0999 V2000
    7.0970   -3.3060   19.2650 C   0  0  0  0  0  0  0  0  0  0  0  0
    6.3860   -4.0990   20.2720 C   0  0  0  0  0  0  0  0  0  0  0  0
    5.3380   -4.6790   19.9390 O   0  0  0  0  0  0  0  0  0  0  0  0
    6.8820   -4.2710   21.5800 N   0  0  0  0  0  0  0  0  0  0  0  0
    6.6640   -5.5270   22.2830 C   0  0  0  0  0  0  0  0  0  0  0  0
    6.3350   -5.2080   23.7270 C   0  0  0  0  0  0  0  0  0  0  0  0
    6.2630   -3.7360   23.9850 C   0  0  0  0  0  0  0  0  0  0  0  0
    5.5430   -3.4040   25.2340 C   0  0  0  0  0  0  0  0  0  0  0  0
    4.2840   -3.3310   25.1750 O   0  0  0  0  0  0  0  0  0  0  0  0
    6.0890   -3.0930   26.5030 N   0  0  0  0  0  0  0  0  0  0  0  0
    5.9540   -1.6360   26.6980 C   0  0  2  0  0  0  0  0  0  0  0  0
    6.6970   -0.9950   25.6090 C   0  0  0  0  0  0  0  0  0  0  0  0
    6.4390   -1.0400   28.0320 C   0  0  0  0  0  0  0  0  0  0  0  0
    5.8450    0.3350   28.0910 C   0  0  0  0  0  0  0  0  0  0  0  0
    6.1610    1.1560   29.3160 C   0  0  0  0  0  0  0  0  0  0  0  0
    7.0290    0.4720   30.3010 C   0  0  0  0  0  0  0  0  0  0  0  0
    7.5260   -0.7930   30.1560 C   0  0  0  0  0  0  0  0  0  0  0  0
    7.2360   -1.5680   29.0170 C   0  0  0  0  0  0  0  0  0  0  0  0
    5.7010   -3.7950   27.6780 C   0  0  2  0  0  0  0  0  0  0  0  0
    6.7280   -4.3330   28.6560 C   0  0  0  0  0  0  0  0  0  0  0  0
    4.8820   -5.0580   27.4190 C   0  0  0  0  0  0  0  0  0  0  0  0
    3.9870   -5.1450   26.5910 C   0  0  0  0  0  0  0  0  0  0  0  0
    3.1570   -6.3490   26.3020 C   0  0  0  0  0  0  0  0  0  0  0  0
    3.2850   -7.5380   26.9380 C   0  0  0  0  0  0  0  0  0  0  0  0
    4.3730   -7.4860   27.9740 C   0  0  0  0  0  0  0  0  0  0  0  0
    5.1770   -6.2300   28.2090 C   0  0  0  0  0  0  0  0  0  0  0  0
    7.5100   -3.0740   23.6190 C   0  0  0  0  0  0  0  0  0  0  0  0
    7.7260   -3.2570   22.1500 C   0  0  0  0  0  0  0  0  0  0  0  0
  1  2  1  0
  2  3  2  0
  2  4  1  0
  4  5  1  0
  5  6  1  0
  6  7  1  0
  7  8  1  0
  8  9  2  0
  8 10  1  0
 10 11  1  0
 11 12  1  6
 11 13  1  0
 13 14  2  0
 14 15  1  0
 15 16  2  0
 16 17  1  0
 13 18  1  0
 17 18  2  0
 10 19  1  0
 19 20  1  6
 19 21  1  0
 21 22  2  0
 22 23  1  0
 23 24  2  0
 24 25  1  0
 21 26  1  0
 25 26  2  0
  7 27  1  0
  4 28  1  0
 27 28  1  0
M  END
