piperidine-amides-26043-covalent
     RDKit          3D

 25 28  0  0  0  0  0  0  0  0999 V2000
    7.0770   -3.2750   19.2500 C   0  0  0  0  0  0  0  0  0  0  0  0
    6.3340   -4.0530   20.2490 C   0  0  0  0  0  0  0  0  0  0  0  0
    5.2800   -4.6060   19.9040 O   0  0  0  0  0  0  0  0  0  0  0  0
    6.7930   -4.2420   21.5670 N   0  0  0  0  0  0  0  0  0  0  0  0
    6.5700   -5.4960   22.2500 C   0  0  0  0  0  0  0  0  0  0  0  0
    6.2880   -5.1820   23.6990 C   0  0  0  0  0  0  0  0  0  0  0  0
    6.1310   -3.7160   23.9760 C   0  0  0  0  0  0  0  0  0  0  0  0
    5.6710   -3.4410   25.3590 C   0  0  0  0  0  0  0  0  0  0  0  0
    5.1180   -2.3380   25.6380 O   0  0  0  0  0  0  0  0  0  0  0  0
    5.8010   -4.3800   26.4110 N   0  0  0  0  0  0  0  0  0  0  0  0
    5.8810   -3.9640   27.7940 C   0  0  0  0  0  0  0  0  0  0  0  0
    5.1110   -5.1870   27.9250 C   0  0  0  0  0  0  0  0  0  0  0  0
    5.4460   -6.2110   28.9270 C   0  0  0  0  0  0  0  0  0  0  0  0
    4.2500   -6.3090   29.8400 C   0  0  0  0  0  0  0  0  0  0  0  0
    3.8880   -4.9810   29.7840 O   0  0  0  0  0  0  0  0  0  0  0  0
    2.9410   -4.7860   28.8010 C   0  0  0  0  0  0  0  0  0  0  0  0
    3.6750   -5.1240   27.5520 C   0  0  0  0  0  0  0  0  0  0  0  0
    4.8660   -5.4870   26.5520 C   0  0  1  0  0  0  0  0  0  0  0  0
    3.5610   -5.2050   26.0680 C   0  0  0  0  0  0  0  0  0  0  0  0
    2.8450   -3.8670   25.8790 C   0  0  0  0  0  0  0  0  0  0  0  0
    1.5000   -4.1610   25.3280 C   0  0  0  0  0  0  0  0  0  0  0  0
    1.4320   -5.6310   25.1980 C   0  0  0  0  0  0  0  0  0  0  0  0
    2.6440   -6.2430   25.6330 O   0  0  0  0  0  0  0  0  0  0  0  0
    7.3900   -3.0120   23.5970 C   0  0  0  0  0  0  0  0  0  0  0  0
    7.5810   -3.1890   22.1410 C   0  0  0  0  0  0  0  0  0  0  0  0
  1  2  1  0
  2  3  2  0
  2  4  1  0
  4  5  1  0
  5  6  1  0
  6  7  1  0
  7  8  1  0
  8  9  2  0
  8 10  1  0
 10 11  1  0
 12 11  1  0
 12 13  1  0
 13 14  1  0
 14 15  1  0
 15 16  1  0
 12 17  1  0
 16 17  1  0
 10 18  1  0
 12 18  1  0
 18 19  1  6
 19 20  2  0
 20 21  1  0
 21 22  2  0
 19 23  1  0
 22 23  1  0
  7 24  1  0
  4 25  1  0
 24 25  1  0
M  END
