piperidine-amides-1523-covalent
     RDKit          3D

 21 23  0  0  0  0  0  0  0  0999 V2000
    7.1490   -3.2740   19.2010 C   0  0  0  0  0  0  0  0  0  0  0  0
    6.3820   -4.0530   20.2100 C   0  0  0  0  0  0  0  0  0  0  0  0
    5.2920   -4.5520   19.8870 O   0  0  0  0  0  0  0  0  0  0  0  0
    6.9400   -4.2630   21.4890 N   0  0  0  0  0  0  0  0  0  0  0  0
    6.6200   -5.4000   22.3030 C   0  0  0  0  0  0  0  0  0  0  0  0
    5.7590   -4.8740   23.4520 C   0  0  0  0  0  0  0  0  0  0  0  0
    6.5170   -3.7890   24.1510 C   0  0  0  0  0  0  0  0  0  0  0  0
    5.7200   -3.1830   25.2310 C   0  0  0  0  0  0  0  0  0  0  0  0
    4.7880   -2.4670   24.8630 O   0  0  0  0  0  0  0  0  0  0  0  0
    5.9950   -3.4200   26.5740 N   0  0  0  0  0  0  0  0  0  0  0  0
    4.9730   -3.4870   27.5560 C   0  0  0  0  0  0  0  0  0  0  0  0
    3.9640   -2.6310   27.6240 C   0  0  0  0  0  0  0  0  0  0  0  0
    4.1760   -2.4880   28.9510 C   0  0  0  0  0  0  0  0  0  0  0  0
    4.5050   -1.1910   29.3150 C   0  0  0  0  0  0  0  0  0  0  0  0
    4.8240   -0.9780   30.7530 C   0  0  0  0  0  0  0  0  0  0  0  0
    4.1250   -1.7730   31.5460 O   0  0  0  0  0  0  0  0  0  0  0  0
    3.0710   -2.5440   31.2320 C   0  0  0  0  0  0  0  0  0  0  0  0
    3.1690   -3.0220   29.7780 C   0  0  0  0  0  0  0  0  0  0  0  0
    5.2960   -3.3640   28.9350 C   0  0  0  0  0  0  0  0  0  0  0  0
    6.9900   -2.6690   23.2940 C   0  0  0  0  0  0  0  0  0  0  0  0
    7.7250   -3.2110   22.0970 C   0  0  0  0  0  0  0  0  0  0  0  0
  1  2  1  0
  2  3  2  0
  2  4  1  0
  4  5  1  0
  5  6  1  0
  6  7  1  0
  7  8  1  0
  8  9  2  0
  8 10  1  0
 10 11  1  0
 11 12  1  0
 13 12  1  0
 13 14  1  0
 14 15  1  0
 15 16  1  0
 16 17  1  0
 13 18  1  0
 17 18  1  0
 11 19  1  0
 13 19  1  0
  7 20  1  0
  4 21  1  0
 20 21  1  0
M  END
