piperidine-amides-12348-covalent
     RDKit          3D

 24 25  0  0  0  0  0  0  0  0999 V2000
    7.1210   -3.2650   19.2260 C   0  0  0  0  0  0  0  0  0  0  0  0
    6.3520   -4.0290   20.2030 C   0  0  0  0  0  0  0  0  0  0  0  0
    5.2870   -4.5530   19.8830 O   0  0  0  0  0  0  0  0  0  0  0  0
    6.8570   -4.2170   21.5300 N   0  0  0  0  0  0  0  0  0  0  0  0
    7.6860   -3.2000   22.1300 C   0  0  0  0  0  0  0  0  0  0  0  0
    7.0480   -2.6880   23.3840 C   0  0  0  0  0  0  0  0  0  0  0  0
    6.4890   -3.8820   24.1340 C   0  0  0  0  0  0  0  0  0  0  0  0
    5.7880   -3.3720   25.3450 C   0  0  0  0  0  0  0  0  0  0  0  0
    4.5470   -3.2740   25.4230 O   0  0  0  0  0  0  0  0  0  0  0  0
    6.5960   -2.9620   26.4300 N   0  0  0  0  0  0  0  0  0  0  0  0
    6.2920   -3.3730   27.7840 C   0  0  0  0  0  0  0  0  0  0  0  0
    5.9780   -4.8470   27.8500 C   0  0  0  0  0  0  0  0  0  0  0  0
    6.0810   -5.5100   26.6400 O   0  0  0  0  0  0  0  0  0  0  0  0
    5.5840   -5.5640   28.9610 O   0  0  0  0  0  0  0  0  0  0  0  0
    5.5120   -6.9590   29.0520 C   0  0  0  0  0  0  0  0  0  0  0  0
    4.2870   -7.3710   29.5940 C   0  0  0  0  0  0  0  0  0  0  0  0
    3.1770   -7.5530   28.7700 C   0  0  0  0  0  0  0  0  0  0  0  0
    1.9300   -7.9800   29.3450 C   0  0  0  0  0  0  0  0  0  0  0  0
    1.7820   -8.2150   30.6550 C   0  0  0  0  0  0  0  0  0  0  0  0
    2.8580   -8.0420   31.4730 C   0  0  0  0  0  0  0  0  0  0  0  0
    4.1090   -7.6250   30.9760 C   0  0  0  0  0  0  0  0  0  0  0  0
    5.3950   -7.4480   32.1490 Cl  0  0  0  0  0  0  0  0  0  0  0  0
    5.6700   -4.7980   23.3600 C   0  0  0  0  0  0  0  0  0  0  0  0
    6.4410   -5.3290   22.3390 C   0  0  0  0  0  0  0  0  0  0  0  0
  1  2  1  0
  2  3  2  0
  2  4  1  0
  4  5  1  0
  5  6  1  0
  6  7  1  0
  7  8  1  0
  8  9  2  0
  8 10  1  0
 10 11  1  0
 11 12  1  0
 12 13  2  0
 12 14  1  0
 14 15  1  0
 15 16  1  0
 16 17  2  0
 17 18  1  0
 18 19  2  0
 19 20  1  0
 16 21  1  0
 20 21  2  0
 21 22  1  0
  7 23  1  0
  4 24  1  0
 23 24  1  0
M  END
