piperidine-amides-24834-covalent
     RDKit          3D

 24 25  0  0  0  0  0  0  0  0999 V2000
    7.0710   -3.3660   19.3930 C   0  0  0  0  0  0  0  0  0  0  0  0
    6.3680   -4.2110   20.3630 C   0  0  0  0  0  0  0  0  0  0  0  0
    5.3710   -4.8700   19.9930 O   0  0  0  0  0  0  0  0  0  0  0  0
    6.8320   -4.3370   21.6860 N   0  0  0  0  0  0  0  0  0  0  0  0
    6.5580   -5.5780   22.3860 C   0  0  0  0  0  0  0  0  0  0  0  0
    6.2900   -5.2530   23.8720 C   0  0  0  0  0  0  0  0  0  0  0  0
    6.1090   -3.7550   23.9760 C   0  0  0  0  0  0  0  0  0  0  0  0
    5.6440   -3.3020   25.3150 C   0  0  0  0  0  0  0  0  0  0  0  0
    4.7960   -2.3900   25.3360 O   0  0  0  0  0  0  0  0  0  0  0  0
    6.1000   -3.8760   26.5290 N   0  0  0  0  0  0  0  0  0  0  0  0
    5.8940   -5.2740   26.7240 C   0  0  0  0  0  0  0  0  0  0  0  0
    6.1070   -5.4140   28.1990 C   0  0  0  0  0  0  0  0  0  0  0  0
    5.7730   -4.2790   28.8490 C   0  0  2  0  0  0  0  0  0  0  0  0
    4.6120   -4.3190   29.5770 C   0  0  0  0  0  0  0  0  0  0  0  0
    4.4160   -5.4580   30.3630 C   0  0  0  0  0  0  0  0  0  0  0  0
    5.4970   -6.1820   30.7580 O   0  0  0  0  0  0  0  0  0  0  0  0
    3.1560   -5.8670   30.7440 O   0  0  0  0  0  0  0  0  0  0  0  0
    2.7880   -7.2350   30.6580 C   0  0  0  0  0  0  0  0  0  0  0  0
    3.3460   -7.7950   29.3690 C   0  0  0  0  0  0  0  0  0  0  0  0
    5.8420   -3.3140   27.8630 C   0  0  0  0  0  0  0  0  0  0  0  0
    6.6800   -2.1340   28.2520 C   0  0  0  0  0  0  0  0  0  0  0  0
    5.1380   -1.9750   28.0110 C   0  0  0  0  0  0  0  0  0  0  0  0
    7.4000   -3.1050   23.5920 C   0  0  0  0  0  0  0  0  0  0  0  0
    7.6330   -3.2940   22.2640 C   0  0  0  0  0  0  0  0  0  0  0  0
  1  2  1  0
  2  3  2  0
  2  4  1  0
  4  5  1  0
  5  6  1  0
  6  7  1  0
  7  8  1  0
  8  9  2  0
  8 10  1  0
 10 11  1  0
 11 12  1  0
 12 13  1  0
 13 14  1  6
 14 15  1  0
 15 16  2  0
 15 17  1  0
 17 18  1  0
 18 19  1  0
 10 20  1  0
 13 20  1  0
 20 21  1  0
 20 22  1  0
  7 23  1  0
  4 24  1  0
 23 24  1  0
M  END
