piperidine-amides-30790-covalent
     RDKit          3D

 28 31  0  0  0  0  0  0  0  0999 V2000
    7.0120   -3.3720   19.4400 C   0  0  0  0  0  0  0  0  0  0  0  0
    6.3670   -4.2510   20.4250 C   0  0  0  0  0  0  0  0  0  0  0  0
    5.4370   -4.9740   20.0190 O   0  0  0  0  0  0  0  0  0  0  0  0
    6.7870   -4.3310   21.7840 N   0  0  0  0  0  0  0  0  0  0  0  0
    6.6510   -5.5660   22.5450 C   0  0  0  0  0  0  0  0  0  0  0  0
    6.0730   -5.2030   23.9050 C   0  0  0  0  0  0  0  0  0  0  0  0
    5.9480   -3.7210   24.0580 C   0  0  0  0  0  0  0  0  0  0  0  0
    5.1710   -3.1840   25.2490 C   0  0  0  0  0  0  0  0  0  0  0  0
    4.2710   -2.3400   25.0060 O   0  0  0  0  0  0  0  0  0  0  0  0
    5.2990   -3.4850   26.6440 N   0  0  0  0  0  0  0  0  0  0  0  0
    6.5340   -3.1980   27.2440 C   0  0  0  0  0  0  0  0  0  0  0  0
    6.7030   -4.2610   28.2750 C   0  0  0  0  0  0  0  0  0  0  0  0
    5.6400   -4.3030   29.2440 C   0  0  0  0  0  0  0  0  0  0  0  0
    4.2640   -4.2510   28.6260 C   0  0  2  0  0  0  0  0  0  0  0  0
    3.8100   -5.5540   28.0100 C   0  0  0  0  0  0  0  0  0  0  0  0
    4.6600   -5.9860   26.9360 C   0  0  0  0  0  0  0  0  0  0  0  0
    4.0310   -7.0640   26.6160 C   0  0  0  0  0  0  0  0  0  0  0  0
    2.8580   -7.2530   27.4810 N   0  0  0  0  0  0  0  0  0  0  0  0
    2.6980   -6.2420   28.4250 N   0  0  0  0  0  0  0  0  0  0  0  0
    1.7070   -6.1680   29.3330 C   0  0  0  0  0  0  0  0  0  0  0  0
    0.3380   -6.1030   28.6780 C   0  0  0  0  0  0  0  0  0  0  0  0
   -0.7760   -6.0180   29.6610 C   0  0  0  0  0  0  0  0  0  0  0  0
   -0.1710   -6.0250   31.0010 C   0  0  0  0  0  0  0  0  0  0  0  0
    0.7220   -6.0600   31.7700 C   0  0  0  0  0  0  0  0  0  0  0  0
    1.8630   -6.1490   30.7530 C   0  0  0  0  0  0  0  0  0  0  0  0
    4.2140   -3.2030   27.5040 C   0  0  0  0  0  0  0  0  0  0  0  0
    7.2480   -3.0150   23.7920 C   0  0  0  0  0  0  0  0  0  0  0  0
    7.6630   -3.3040   22.3420 C   0  0  0  0  0  0  0  0  0  0  0  0
  1  2  1  0
  2  3  2  0
  2  4  1  0
  4  5  1  0
  5  6  1  0
  6  7  1  0
  7  8  1  0
  8  9  2  0
  8 10  1  0
 10 11  1  0
 11 12  1  0
 12 13  1  0
 13 14  1  0
 14 15  1  6
 15 16  2  0
 16 17  1  0
 17 18  2  0
 15 19  1  0
 18 19  1  0
 19 20  1  0
 20 21  2  0
 21 22  1  0
 22 23  2  0
 23 24  1  0
 20 25  1  0
 24 25  2  0
 10 26  1  0
 14 26  1  0
  7 27  1  0
  4 28  1  0
 27 28  1  0
M  END
