piperidine-amides-10512-covalent
     RDKit          3D

 23 24  0  0  0  0  0  0  0  0999 V2000
    7.0920   -3.2750   19.2340 C   0  0  0  0  0  0  0  0  0  0  0  0
    6.3550   -4.0280   20.2530 C   0  0  0  0  0  0  0  0  0  0  0  0
    5.2770   -4.5610   19.8880 O   0  0  0  0  0  0  0  0  0  0  0  0
    6.8730   -4.1750   21.5420 N   0  0  0  0  0  0  0  0  0  0  0  0
    7.6960   -3.1690   22.1720 C   0  0  0  0  0  0  0  0  0  0  0  0
    7.0110   -2.7140   23.4280 C   0  0  0  0  0  0  0  0  0  0  0  0
    6.5420   -3.8720   24.2680 C   0  0  0  0  0  0  0  0  0  0  0  0
    5.8400   -3.3760   25.4760 C   0  0  0  0  0  0  0  0  0  0  0  0
    4.6070   -3.1760   25.3930 O   0  0  0  0  0  0  0  0  0  0  0  0
    6.4830   -3.1100   26.7070 N   0  0  0  0  0  0  0  0  0  0  0  0
    5.8930   -3.5020   27.9640 C   0  0  1  0  0  0  0  0  0  0  0  0
    6.5320   -4.7490   28.5660 C   0  0  0  0  0  0  0  0  0  0  0  0
    5.8790   -2.4090   28.9680 C   0  0  0  0  0  0  0  0  0  0  0  0
    6.9650   -1.6010   29.2310 C   0  0  0  0  0  0  0  0  0  0  0  0
    6.8750   -0.6070   30.1820 C   0  0  0  0  0  0  0  0  0  0  0  0
    5.6950   -0.4220   30.8700 C   0  0  0  0  0  0  0  0  0  0  0  0
    5.4870    0.9370   32.2080 Br  0  0  0  0  0  0  0  0  0  0  0  0
    4.6040   -1.2230   30.6140 C   0  0  0  0  0  0  0  0  0  0  0  0
    3.4070   -1.0310   31.3120 O   0  0  0  0  0  0  0  0  0  0  0  0
    2.1620   -0.5470   31.3170 C   0  0  0  0  0  0  0  0  0  0  0  0
    4.7190   -2.2020   29.6680 C   0  0  0  0  0  0  0  0  0  0  0  0
    5.6630   -4.8440   23.4640 C   0  0  0  0  0  0  0  0  0  0  0  0
    6.5310   -5.3510   22.3250 C   0  0  0  0  0  0  0  0  0  0  0  0
  1  2  1  0
  2  3  2  0
  2  4  1  0
  4  5  1  0
  5  6  1  0
  6  7  1  0
  7  8  1  0
  8  9  2  0
  8 10  1  0
 10 11  1  0
 11 12  1  1
 11 13  1  0
 13 14  2  0
 14 15  1  0
 15 16  2  0
 16 17  1  0
 16 18  1  0
 18 19  1  0
 19 20  1  0
 13 21  1  0
 18 21  2  0
  7 22  1  0
  4 23  1  0
 22 23  1  0
M  END
