piperidine-amides-5532-covalent
     RDKit          3D

 19 20  0  0  0  0  0  0  0  0999 V2000
    7.1300   -3.3060   19.2170 C   0  0  0  0  0  0  0  0  0  0  0  0
    6.3520   -4.0230   20.2250 C   0  0  0  0  0  0  0  0  0  0  0  0
    5.2910   -4.5710   19.8950 O   0  0  0  0  0  0  0  0  0  0  0  0
    6.8180   -4.1500   21.5390 N   0  0  0  0  0  0  0  0  0  0  0  0
    7.7560   -3.1940   22.1120 C   0  0  0  0  0  0  0  0  0  0  0  0
    7.2050   -2.7640   23.4420 C   0  0  0  0  0  0  0  0  0  0  0  0
    5.9320   -3.4830   23.7800 C   0  0  0  0  0  0  0  0  0  0  0  0
    5.3930   -3.0830   25.0960 C   0  0  0  0  0  0  0  0  0  0  0  0
    4.2110   -2.6460   25.1920 O   0  0  0  0  0  0  0  0  0  0  0  0
    6.1180   -3.1750   26.2910 N   0  0  0  0  0  0  0  0  0  0  0  0
    5.9530   -4.3680   27.1280 C   0  0  0  0  0  0  0  0  0  0  0  0
    7.1720   -5.1580   26.9640 C   0  0  0  0  0  0  0  0  0  0  0  0
    8.3200   -4.4560   26.3740 C   0  0  0  0  0  0  0  0  0  0  0  0
    9.0870   -4.4170   27.8450 S   0  0  0  0  0  0  0  0  0  0  0  0
    9.0190   -3.1080   28.5240 O   0  0  0  0  0  0  0  0  0  0  0  0
   10.4120   -5.0920   27.7710 O   0  0  0  0  0  0  0  0  0  0  0  0
    7.7750   -5.4530   28.3790 C   0  0  0  0  0  0  0  0  0  0  0  0
    5.9480   -4.9610   23.5730 C   0  0  0  0  0  0  0  0  0  0  0  0
    6.5910   -5.3390   22.2990 C   0  0  0  0  0  0  0  0  0  0  0  0
  1  2  1  0
  2  3  2  0
  2  4  1  0
  4  5  1  0
  5  6  1  0
  6  7  1  0
  7  8  1  0
  8  9  2  0
  8 10  1  0
 10 11  1  0
 11 12  1  0
 12 13  1  0
 14 13  1  0
 14 15  2  0
 14 16  2  0
 12 17  1  0
 14 17  1  0
  7 18  1  0
  4 19  1  0
 18 19  1  0
M  END
