piperidine-amides-875-covalent
     RDKit          3D

 24 25  0  0  0  0  0  0  0  0999 V2000
    7.1020   -3.3760   19.2850 C   0  0  0  0  0  0  0  0  0  0  0  0
    6.3600   -4.0700   20.3130 C   0  0  0  0  0  0  0  0  0  0  0  0
    5.3140   -4.6900   19.9430 O   0  0  0  0  0  0  0  0  0  0  0  0
    6.7770   -4.1350   21.6630 N   0  0  0  0  0  0  0  0  0  0  0  0
    7.7620   -3.0890   22.1020 C   0  0  0  0  0  0  0  0  0  0  0  0
    7.6530   -3.1360   23.6690 C   0  0  0  0  0  0  0  0  0  0  0  0
    6.2400   -3.5670   23.8610 C   0  0  0  0  0  0  0  0  0  0  0  0
    5.4660   -2.9330   25.0910 C   0  0  0  0  0  0  0  0  0  0  0  0
    4.7280   -2.0590   24.6710 O   0  0  0  0  0  0  0  0  0  0  0  0
    5.7580   -3.4580   26.2070 N   0  0  0  0  0  0  0  0  0  0  0  0
    5.8680   -3.8820   27.4890 C   0  0  1  0  0  0  0  0  0  0  0  0
    6.7200   -4.3240   28.4470 C   0  0  0  0  0  0  0  0  0  0  0  0
    7.2230   -5.2810   29.3200 O   0  0  0  0  0  0  0  0  0  0  0  0
    5.9050   -5.3800   28.1940 O   0  0  0  0  0  0  0  0  0  0  0  0
    6.1370   -6.6030   28.8770 C   0  0  0  0  0  0  0  0  0  0  0  0
    5.5850   -2.8950   28.6240 C   0  0  0  0  0  0  0  0  0  0  0  0
    6.6950   -1.9300   28.9860 C   0  0  0  0  0  0  0  0  0  0  0  0
    6.3010   -1.0530   30.0560 C   0  0  0  0  0  0  0  0  0  0  0  0
    5.1380   -0.8150   30.9040 C   0  0  0  0  0  0  0  0  0  0  0  0
    4.1480   -1.8810   30.3780 C   0  0  0  0  0  0  0  0  0  0  0  0
    4.3030   -2.9280   29.2680 C   0  0  0  0  0  0  0  0  0  0  0  0
    2.7980   -4.2850   28.7260 I   0  0  0  0  0  0  0  0  0  0  0  0
    6.1310   -5.0740   23.6720 C   0  0  0  0  0  0  0  0  0  0  0  0
    6.6300   -5.3770   22.4320 C   0  0  0  0  0  0  0  0  0  0  0  0
  1  2  1  0
  2  3  2  0
  2  4  1  0
  4  5  1  0
  5  6  1  0
  6  7  1  0
  7  8  1  0
  8  9  2  0
  8 10  1  0
 11 10  1  6
 11 12  1  0
 12 13  2  0
 12 14  1  0
 14 15  1  0
 11 16  1  0
 16 17  2  0
 17 18  1  0
 18 19  2  0
 19 20  1  0
 16 21  1  0
 20 21  2  0
 21 22  1  0
  7 23  1  0
  4 24  1  0
 23 24  1  0
M  END
