piperidine-amides-6251-covalent
     RDKit          3D

 26 28  0  0  0  0  0  0  0  0999 V2000
    7.0890   -3.3200   19.3250 C   0  0  0  0  0  0  0  0  0  0  0  0
    6.4060   -4.1780   20.3030 C   0  0  0  0  0  0  0  0  0  0  0  0
    5.3760   -4.8090   19.9770 O   0  0  0  0  0  0  0  0  0  0  0  0
    6.9390   -4.3360   21.5910 N   0  0  0  0  0  0  0  0  0  0  0  0
    7.7210   -3.2670   22.1740 C   0  0  0  0  0  0  0  0  0  0  0  0
    6.8390   -2.6410   23.2450 C   0  0  0  0  0  0  0  0  0  0  0  0
    6.6190   -3.7260   24.2650 C   0  0  0  0  0  0  0  0  0  0  0  0
    5.8230   -3.2010   25.3970 C   0  0  0  0  0  0  0  0  0  0  0  0
    4.6280   -2.9020   25.1900 O   0  0  0  0  0  0  0  0  0  0  0  0
    6.4200   -3.0640   26.6690 N   0  0  0  0  0  0  0  0  0  0  0  0
    6.4550   -1.8050   27.3780 C   0  0  0  0  0  0  0  0  0  0  0  0
    5.7450   -0.6640   26.6930 C   0  0  0  0  0  0  0  0  0  0  0  0
    5.7110    0.5720   27.2850 C   0  0  0  0  0  0  0  0  0  0  0  0
    6.3290    0.7610   28.5050 C   0  0  0  0  0  0  0  0  0  0  0  0
    6.3000    2.0020   29.1180 O   0  0  0  0  0  0  0  0  0  0  0  0
    5.0880    2.3770   29.7410 C   0  0  0  0  0  0  0  0  0  0  0  0
    4.7710    3.6280   29.2680 C   0  0  0  0  0  0  0  0  0  0  0  0
    3.5820    4.0320   28.7350 N   0  0  0  0  0  0  0  0  0  0  0  0
    3.6780    5.3230   28.3940 C   0  0  0  0  0  0  0  0  0  0  0  0
    5.0640    5.7640   28.7500 C   0  0  0  0  0  0  0  0  0  0  0  0
    5.6400    4.6560   29.2740 N   0  0  0  0  0  0  0  0  0  0  0  0
    7.0100    4.6650   29.7530 C   0  0  0  0  0  0  0  0  0  0  0  0
    6.9950   -0.2620   29.1600 C   0  0  0  0  0  0  0  0  0  0  0  0
    7.0440   -1.5340   28.5790 C   0  0  0  0  0  0  0  0  0  0  0  0
    5.8000   -4.8510   23.6240 C   0  0  0  0  0  0  0  0  0  0  0  0
    6.5380   -5.4340   22.4370 C   0  0  0  0  0  0  0  0  0  0  0  0
  1  2  1  0
  2  3  2  0
  2  4  1  0
  4  5  1  0
  5  6  1  0
  6  7  1  0
  7  8  1  0
  8  9  2  0
  8 10  1  0
 10 11  1  0
 11 12  2  0
 12 13  1  0
 13 14  2  0
 14 15  1  0
 15 16  1  0
 16 17  1  0
 17 18  2  0
 18 19  1  0
 19 20  2  0
 17 21  1  0
 20 21  1  0
 21 22  1  0
 14 23  1  0
 11 24  1  0
 23 24  2  0
  7 25  1  0
  4 26  1  0
 25 26  1  0
M  END
