piperidine-amides-35299-covalent
     RDKit          3D

 32 34  0  0  0  0  0  0  0  0999 V2000
    7.0060   -3.3330   19.3890 C   0  0  0  0  0  0  0  0  0  0  0  0
    6.3600   -4.2090   20.4070 C   0  0  0  0  0  0  0  0  0  0  0  0
    5.4290   -4.9090   20.0000 O   0  0  0  0  0  0  0  0  0  0  0  0
    6.8160   -4.2530   21.7370 N   0  0  0  0  0  0  0  0  0  0  0  0
    7.6760   -3.2230   22.3000 C   0  0  0  0  0  0  0  0  0  0  0  0
    7.3580   -2.9880   23.7580 C   0  0  0  0  0  0  0  0  0  0  0  0
    6.0240   -3.6540   24.0580 C   0  0  0  0  0  0  0  0  0  0  0  0
    5.3850   -3.1460   25.3090 C   0  0  0  0  0  0  0  0  0  0  0  0
    4.1810   -2.8840   25.2260 O   0  0  0  0  0  0  0  0  0  0  0  0
    5.9950   -2.9270   26.5810 N   0  0  0  0  0  0  0  0  0  0  0  0
    5.2770   -3.6540   27.6220 C   0  0  0  0  0  0  0  0  0  0  0  0
    6.1310   -4.5560   28.4650 C   0  0  0  0  0  0  0  0  0  0  0  0
    5.6240   -5.3030   29.4560 C   0  0  0  0  0  0  0  0  0  0  0  0
    4.2570   -5.2710   29.7530 N   0  0  0  0  0  0  0  0  0  0  0  0
    3.3800   -4.4130   28.9770 C   0  0  0  0  0  0  0  0  0  0  0  0
    1.6520   -4.2910   29.2650 Cl  0  0  0  0  0  0  0  0  0  0  0  0
    3.9710   -3.6820   27.9790 N   0  0  0  0  0  0  0  0  0  0  0  0
    6.4890   -1.6570   27.0290 C   0  0  0  0  0  0  0  0  0  0  0  0
    7.0670   -1.6830   28.4590 C   0  0  0  0  0  0  0  0  0  0  0  0
    6.1940   -0.5660   28.9170 C   0  0  0  0  0  0  0  0  0  0  0  0
    6.1500    0.6810   28.4020 N   0  0  0  0  0  0  0  0  0  0  0  0
    5.7300    1.7160   29.3150 C   0  0  0  0  0  0  0  0  0  0  0  0
    5.5710    3.0020   28.8250 O   0  0  0  0  0  0  0  0  0  0  0  0
    5.4700    1.4970   30.6640 O   0  0  0  0  0  0  0  0  0  0  0  0
    4.4500    0.6860   31.1740 C   0  0  0  0  0  0  0  0  0  0  0  0
    3.5080    1.5460   31.9520 C   0  0  0  0  0  0  0  0  0  0  0  0
    4.7540   -0.5700   31.9290 C   0  0  0  0  0  0  0  0  0  0  0  0
    3.3180    0.4920   30.1820 C   0  0  0  0  0  0  0  0  0  0  0  0
    5.7260    0.6040   27.0600 C   0  0  0  0  0  0  0  0  0  0  0  0
    5.5260   -0.7140   26.7020 C   0  0  0  0  0  0  0  0  0  0  0  0
    6.1610   -5.1410   23.9010 C   0  0  0  0  0  0  0  0  0  0  0  0
    6.6880   -5.5040   22.5050 C   0  0  0  0  0  0  0  0  0  0  0  0
  1  2  1  0
  2  3  2  0
  2  4  1  0
  4  5  1  0
  5  6  1  0
  6  7  1  0
  7  8  1  0
  8  9  2  0
  8 10  1  0
 10 11  1  0
 11 12  2  0
 12 13  1  0
 13 14  2  0
 14 15  1  0
 15 16  1  0
 11 17  1  0
 15 17  2  0
 10 18  1  0
 18 19  1  0
 19 20  1  0
 20 21  1  0
 21 22  1  0
 22 23  2  0
 22 24  1  0
 25 24  1  0
 25 26  1  0
 25 27  1  0
 25 28  1  0
 21 29  1  0
 18 30  1  0
 29 30  1  0
  7 31  1  0
  4 32  1  0
 31 32  1  0
M  END
