piperidine-amides-11260-covalent
     RDKit          3D

 19 19  0  0  0  0  0  0  0  0999 V2000
    7.1140   -3.3240   19.3110 C   0  0  0  0  0  0  0  0  0  0  0  0
    6.3600   -4.1020   20.2930 C   0  0  0  0  0  0  0  0  0  0  0  0
    5.3000   -4.6370   19.9240 O   0  0  0  0  0  0  0  0  0  0  0  0
    6.8230   -4.3050   21.6080 N   0  0  0  0  0  0  0  0  0  0  0  0
    6.4910   -5.4570   22.4020 C   0  0  0  0  0  0  0  0  0  0  0  0
    5.6120   -4.9370   23.5150 C   0  0  0  0  0  0  0  0  0  0  0  0
    6.1930   -3.7590   24.2630 C   0  0  0  0  0  0  0  0  0  0  0  0
    5.1670   -3.1160   25.1350 C   0  0  0  0  0  0  0  0  0  0  0  0
    4.3650   -2.2850   24.6310 O   0  0  0  0  0  0  0  0  0  0  0  0
    4.9980   -3.3720   26.5200 N   0  0  0  0  0  0  0  0  0  0  0  0
    6.1190   -3.9370   27.2500 C   0  0  2  0  0  0  0  0  0  0  0  0
    5.9700   -5.4220   27.2480 C   0  0  0  0  0  0  0  0  0  0  0  0
    6.2110   -3.5300   28.7120 C   0  0  0  0  0  0  0  0  0  0  0  0
    6.6610   -2.0940   28.6270 C   0  0  0  0  0  0  0  0  0  0  0  0
    5.8230   -1.1920   29.5080 C   0  0  0  0  0  0  0  0  0  0  0  0
    6.1940    0.2090   29.2130 C   0  0  0  0  0  0  0  0  0  0  0  0
    6.3660    1.2050   30.1400 C   0  0  0  0  0  0  0  0  0  0  0  0
    6.7650   -2.6910   23.3470 C   0  0  0  0  0  0  0  0  0  0  0  0
    7.6360   -3.3120   22.2790 C   0  0  0  0  0  0  0  0  0  0  0  0
  1  2  1  0
  2  3  2  0
  2  4  1  0
  4  5  1  0
  5  6  1  0
  6  7  1  0
  7  8  1  0
  8  9  2  0
  8 10  1  0
 10 11  1  0
 11 12  1  1
 11 13  1  0
 13 14  1  0
 14 15  1  0
 15 16  1  0
 16 17  2  3
  7 18  1  0
  4 19  1  0
 18 19  1  0
M  END
