piperidine-amides-12880-covalent
     RDKit          3D

 21 22  0  0  0  0  0  0  0  0999 V2000
    7.1080   -3.2540   19.1870 C   0  0  0  0  0  0  0  0  0  0  0  0
    6.3560   -4.0140   20.2120 C   0  0  0  0  0  0  0  0  0  0  0  0
    5.2700   -4.5120   19.8630 O   0  0  0  0  0  0  0  0  0  0  0  0
    6.8700   -4.2020   21.4990 N   0  0  0  0  0  0  0  0  0  0  0  0
    7.6020   -3.1580   22.1480 C   0  0  0  0  0  0  0  0  0  0  0  0
    7.2190   -2.9000   23.5390 C   0  0  0  0  0  0  0  0  0  0  0  0
    6.4330   -3.9730   24.1970 C   0  0  0  0  0  0  0  0  0  0  0  0
    5.6660   -3.4090   25.3410 C   0  0  0  0  0  0  0  0  0  0  0  0
    4.4300   -3.3230   25.2260 O   0  0  0  0  0  0  0  0  0  0  0  0
    6.2950   -2.9780   26.5280 N   0  0  0  0  0  0  0  0  0  0  0  0
    6.5670   -1.5450   26.7950 C   0  0  0  0  0  0  0  0  0  0  0  0
    6.0350   -1.0980   28.1170 C   0  0  0  0  0  0  0  0  0  0  0  0
    5.7780   -2.1930   29.0470 C   0  0  0  0  0  0  0  0  0  0  0  0
    5.2700   -1.7930   30.3150 N   0  0  0  0  0  0  0  0  0  0  0  0
    5.0320   -0.4660   30.6510 C   0  0  0  0  0  0  0  0  0  0  0  0
    5.3020    0.5090   29.7180 C   0  0  0  0  0  0  0  0  0  0  0  0
    4.9550    2.3160   30.2460 Br  0  0  0  0  0  0  0  0  0  0  0  0
    5.8000    0.2360   28.4520 C   0  0  0  0  0  0  0  0  0  0  0  0
    6.0760    1.1820   27.5130 C   0  0  0  0  0  0  0  0  0  0  0  0
    5.6190   -4.8220   23.2990 C   0  0  0  0  0  0  0  0  0  0  0  0
    6.4230   -5.3240   22.2770 C   0  0  0  0  0  0  0  0  0  0  0  0
  1  2  1  0
  2  3  2  0
  2  4  1  0
  4  5  1  0
  5  6  1  0
  6  7  1  0
  7  8  1  0
  8  9  2  0
  8 10  1  0
 10 11  1  0
 11 12  1  0
 12 13  2  0
 13 14  1  0
 14 15  2  0
 15 16  1  0
 16 17  1  0
 12 18  1  0
 16 18  2  0
 18 19  1  0
  7 20  1  0
  4 21  1  0
 20 21  1  0
M  END
