piperidine-amides-2114-covalent
     RDKit          3D

 28 29  0  0  0  0  0  0  0  0999 V2000
    7.1220   -3.2520   19.2250 C   0  0  0  0  0  0  0  0  0  0  0  0
    6.3760   -4.0430   20.2400 C   0  0  0  0  0  0  0  0  0  0  0  0
    5.3100   -4.5460   19.8850 O   0  0  0  0  0  0  0  0  0  0  0  0
    6.9060   -4.2360   21.5190 N   0  0  0  0  0  0  0  0  0  0  0  0
    6.5970   -5.4200   22.2650 C   0  0  0  0  0  0  0  0  0  0  0  0
    5.9080   -5.0230   23.5400 C   0  0  0  0  0  0  0  0  0  0  0  0
    6.6730   -3.8730   24.2040 C   0  0  0  0  0  0  0  0  0  0  0  0
    5.9530   -3.5470   25.4420 C   0  0  0  0  0  0  0  0  0  0  0  0
    5.0180   -2.7290   25.4170 O   0  0  0  0  0  0  0  0  0  0  0  0
    6.3300   -4.1820   26.6380 N   0  0  0  0  0  0  0  0  0  0  0  0
    6.3770   -3.4220   27.8620 C   0  0  0  0  0  0  0  0  0  0  0  0
    4.9980   -3.4800   28.4910 C   0  0  0  0  0  0  0  0  0  0  0  0
    4.7410   -2.2080   29.1910 N   0  0  0  0  0  0  0  0  0  0  0  0
    3.4190   -2.1130   29.8670 C   0  0  0  0  0  0  0  0  0  0  0  0
    2.5330   -3.1590   29.8160 C   0  0  0  0  0  0  0  0  0  0  0  0
    1.2860   -3.2120   30.3860 C   0  0  0  0  0  0  0  0  0  0  0  0
    0.7480   -4.3230   30.9570 O   0  0  0  0  0  0  0  0  0  0  0  0
    0.6120   -2.0150   30.3420 O   0  0  0  0  0  0  0  0  0  0  0  0
   -0.5480   -1.7760   31.1030 C   0  0  0  0  0  0  0  0  0  0  0  0
   -0.2920   -0.7160   32.1250 C   0  0  0  0  0  0  0  0  0  0  0  0
    2.9090   -4.4470   29.0510 C   0  0  0  0  0  0  0  0  0  0  0  0
    1.9100   -5.5630   29.0220 C   0  0  0  0  0  0  0  0  0  0  0  0
    2.0950   -6.5980   28.1420 F   0  0  0  0  0  0  0  0  0  0  0  0
    1.8810   -6.1110   30.2920 F   0  0  0  0  0  0  0  0  0  0  0  0
    0.6980   -5.0530   28.6450 F   0  0  0  0  0  0  0  0  0  0  0  0
    4.1070   -4.4760   28.4650 N   0  0  0  0  0  0  0  0  0  0  0  0
    6.8460   -2.6930   23.2960 C   0  0  0  0  0  0  0  0  0  0  0  0
    7.6890   -3.1880   22.1430 C   0  0  0  0  0  0  0  0  0  0  0  0
  1  2  1  0
  2  3  2  0
  2  4  1  0
  4  5  1  0
  5  6  1  0
  6  7  1  0
  7  8  1  0
  8  9  2  0
  8 10  1  0
 10 11  1  0
 11 12  1  0
 12 13  2  0
 13 14  1  0
 14 15  2  0
 15 16  1  0
 16 17  2  0
 16 18  1  0
 18 19  1  0
 19 20  1  0
 15 21  1  0
 21 22  1  0
 22 23  1  0
 22 24  1  0
 22 25  1  0
 12 26  1  0
 21 26  2  0
  7 27  1  0
  4 28  1  0
 27 28  1  0
M  END
