piperidine-amides-33954-covalent
     RDKit          3D

 28 30  0  0  0  0  0  0  0  0999 V2000
    7.0450   -3.2950   19.2830 C   0  0  0  0  0  0  0  0  0  0  0  0
    6.3350   -4.1030   20.2930 C   0  0  0  0  0  0  0  0  0  0  0  0
    5.3330   -4.7680   19.9560 O   0  0  0  0  0  0  0  0  0  0  0  0
    6.7800   -4.1840   21.6260 N   0  0  0  0  0  0  0  0  0  0  0  0
    6.6050   -5.4420   22.3310 C   0  0  0  0  0  0  0  0  0  0  0  0
    6.2270   -5.1200   23.7880 C   0  0  0  0  0  0  0  0  0  0  0  0
    5.9600   -3.6350   23.8330 C   0  0  0  0  0  0  0  0  0  0  0  0
    5.3670   -3.2410   25.1440 C   0  0  0  0  0  0  0  0  0  0  0  0
    4.1290   -3.0890   25.1710 O   0  0  0  0  0  0  0  0  0  0  0  0
    6.1300   -3.0480   26.3270 N   0  0  0  0  0  0  0  0  0  0  0  0
    6.6020   -1.7230   26.6520 C   0  0  0  0  0  0  0  0  0  0  0  0
    5.4450   -0.9250   27.2150 C   0  0  0  0  0  0  0  0  0  0  0  0
    5.2420   -0.5640   28.5360 C   0  0  0  0  0  0  0  0  0  0  0  0
    4.1500    0.1750   28.9640 C   0  0  0  0  0  0  0  0  0  0  0  0
    3.1450    0.6300   28.1150 C   0  0  0  0  0  0  0  0  0  0  0  0
    1.7850    1.5650   28.7320 Cl  0  0  0  0  0  0  0  0  0  0  0  0
    3.2500    0.3270   26.7970 C   0  0  0  0  0  0  0  0  0  0  0  0
    4.3880   -0.4650   26.2240 C   0  0  0  0  0  0  0  0  0  0  0  0
    5.8900   -3.7740   27.5730 C   0  0  1  0  0  0  0  0  0  0  0  0
    6.2560   -5.2360   27.5640 C   0  0  0  0  0  0  0  0  0  0  0  0
    7.1220   -4.1660   28.3570 C   0  0  0  0  0  0  0  0  0  0  0  0
    7.9880   -4.6050   27.4010 C   0  0  0  0  0  0  0  0  0  0  0  0
    8.7670   -5.6810   27.2490 C   0  0  0  0  0  0  0  0  0  0  0  0
    9.4870   -5.6260   25.9870 C   0  0  0  0  0  0  0  0  0  0  0  0
    9.2290   -4.4240   25.1370 C   0  0  0  0  0  0  0  0  0  0  0  0
    8.1230   -3.5450   26.0570 S   0  0  0  0  0  0  0  0  0  0  0  0
    7.1110   -2.7540   23.4470 C   0  0  0  0  0  0  0  0  0  0  0  0
    7.5390   -3.0720   22.1750 C   0  0  0  0  0  0  0  0  0  0  0  0
  1  2  1  0
  2  3  2  0
  2  4  1  0
  4  5  1  0
  5  6  1  0
  6  7  1  0
  7  8  1  0
  8  9  2  0
  8 10  1  0
 10 11  1  0
 11 12  1  0
 12 13  2  0
 13 14  1  0
 14 15  2  0
 15 16  1  0
 15 17  1  0
 12 18  1  0
 17 18  2  0
 10 19  1  0
 19 20  1  6
 19 21  1  0
 21 22  1  0
 22 23  2  0
 23 24  1  0
 24 25  2  0
 22 26  1  0
 25 26  1  0
  7 27  1  0
  4 28  1  0
 27 28  1  0
M  END
