piperidine-amides-13902-covalent
     RDKit          3D

 26 28  0  0  0  0  0  0  0  0999 V2000
    7.1070   -3.3580   19.3480 C   0  0  0  0  0  0  0  0  0  0  0  0
    6.3650   -4.1820   20.3370 C   0  0  0  0  0  0  0  0  0  0  0  0
    5.3470   -4.7970   19.9690 O   0  0  0  0  0  0  0  0  0  0  0  0
    6.8710   -4.2740   21.6490 N   0  0  0  0  0  0  0  0  0  0  0  0
    7.7530   -3.2620   22.1880 C   0  0  0  0  0  0  0  0  0  0  0  0
    7.0140   -2.6300   23.3580 C   0  0  0  0  0  0  0  0  0  0  0  0
    6.5620   -3.7580   24.2070 C   0  0  0  0  0  0  0  0  0  0  0  0
    5.8340   -3.2760   25.4110 C   0  0  0  0  0  0  0  0  0  0  0  0
    4.5980   -3.2750   25.3440 O   0  0  0  0  0  0  0  0  0  0  0  0
    6.5480   -2.8510   26.5410 N   0  0  0  0  0  0  0  0  0  0  0  0
    6.4640   -1.6090   27.2390 C   0  0  0  0  0  0  0  0  0  0  0  0
    6.7730   -1.4750   28.5870 C   0  0  0  0  0  0  0  0  0  0  0  0
    6.6760   -0.2430   29.2630 C   0  0  0  0  0  0  0  0  0  0  0  0
    7.0100   -0.2950   30.6870 N   0  0  0  0  0  0  0  0  0  0  0  0
    6.0810   -0.1530   31.7240 C   0  0  0  0  0  0  0  0  0  0  0  0
    6.6780    0.3320   33.0300 C   0  0  0  0  0  0  0  0  0  0  0  0
    7.9840    1.0430   32.7690 C   0  0  0  0  0  0  0  0  0  0  0  0
    8.2360    0.8430   31.0690 S   0  0  0  0  0  0  0  0  0  0  0  0
    8.0410    2.1830   30.3830 O   0  0  0  0  0  0  0  0  0  0  0  0
    9.5930    0.2800   30.7970 O   0  0  0  0  0  0  0  0  0  0  0  0
    6.2790    0.9380   28.6660 C   0  0  0  0  0  0  0  0  0  0  0  0
    5.9550    0.9090   27.3370 C   0  0  0  0  0  0  0  0  0  0  0  0
    6.0330   -0.3590   26.5830 C   0  0  0  0  0  0  0  0  0  0  0  0
    5.6930   -0.3450   25.2590 O   0  0  0  0  0  0  0  0  0  0  0  0
    5.7420   -4.8100   23.5100 C   0  0  0  0  0  0  0  0  0  0  0  0
    6.5220   -5.3610   22.5170 C   0  0  0  0  0  0  0  0  0  0  0  0
  1  2  1  0
  2  3  2  0
  2  4  1  0
  4  5  1  0
  5  6  1  0
  6  7  1  0
  7  8  1  0
  8  9  2  0
  8 10  1  0
 10 11  1  0
 11 12  2  0
 12 13  1  0
 13 14  1  0
 14 15  1  0
 15 16  1  0
 16 17  1  0
 18 14  1  0
 17 18  1  0
 18 19  2  0
 18 20  2  0
 13 21  2  0
 21 22  1  0
 11 23  1  0
 22 23  2  0
 23 24  1  0
  7 25  1  0
  4 26  1  0
 25 26  1  0
M  END
