piperidine-amides-27824-covalent
     RDKit          3D

 25 27  0  0  0  0  0  0  0  0999 V2000
    7.0700   -3.3630   19.3750 C   0  0  0  0  0  0  0  0  0  0  0  0
    6.4100   -4.2380   20.3640 C   0  0  0  0  0  0  0  0  0  0  0  0
    5.3720   -4.8170   19.9790 O   0  0  0  0  0  0  0  0  0  0  0  0
    6.9650   -4.4480   21.6430 N   0  0  0  0  0  0  0  0  0  0  0  0
    6.7110   -5.6610   22.3360 C   0  0  0  0  0  0  0  0  0  0  0  0
    6.3150   -5.3910   23.7100 C   0  0  0  0  0  0  0  0  0  0  0  0
    5.8100   -4.0150   23.8520 C   0  0  0  0  0  0  0  0  0  0  0  0
    5.1090   -3.7340   25.1330 C   0  0  0  0  0  0  0  0  0  0  0  0
    4.0260   -3.1380   25.0210 O   0  0  0  0  0  0  0  0  0  0  0  0
    5.5380   -4.0300   26.4400 N   0  0  0  0  0  0  0  0  0  0  0  0
    6.9110   -4.2920   26.6960 C   0  0  0  0  0  0  0  0  0  0  0  0
    7.0270   -5.3350   27.7070 C   0  0  0  0  0  0  0  0  0  0  0  0
    5.9250   -5.3270   28.6290 C   0  0  2  0  0  0  0  0  0  0  0  0
    4.8500   -6.1630   28.3840 C   0  0  0  0  0  0  0  0  0  0  0  0
    4.9120   -7.3870   28.9620 F   0  0  0  0  0  0  0  0  0  0  0  0
    4.5630   -6.3800   27.0700 F   0  0  0  0  0  0  0  0  0  0  0  0
    3.6790   -5.6020   28.8400 F   0  0  0  0  0  0  0  0  0  0  0  0
    5.3860   -3.9600   28.5500 N   0  0  0  0  0  0  0  0  0  0  0  0
    5.1610   -3.6020   29.8150 N   0  0  0  0  0  0  0  0  0  0  0  0
    4.6890   -2.3920   29.8370 C   0  0  0  0  0  0  0  0  0  0  0  0
    4.3140   -1.5980   30.8760 C   0  0  0  0  0  0  0  0  0  0  0  0
    4.7460   -2.3050   28.4290 C   0  0  0  0  0  0  0  0  0  0  0  0
    5.0680   -2.9560   27.3270 C   0  0  0  0  0  0  0  0  0  0  0  0
    6.8250   -2.9570   23.4990 C   0  0  0  0  0  0  0  0  0  0  0  0
    7.6980   -3.4300   22.3890 C   0  0  0  0  0  0  0  0  0  0  0  0
  1  2  1  0
  2  3  2  0
  2  4  1  0
  4  5  1  0
  5  6  1  0
  6  7  1  0
  7  8  1  0
  8  9  2  0
  8 10  1  0
 10 11  1  0
 11 12  1  0
 12 13  1  0
 13 14  1  6
 14 15  1  0
 14 16  1  0
 14 17  1  0
 13 18  1  0
 18 19  1  0
 19 20  2  0
 20 21  1  0
 20 22  1  0
 10 23  1  0
 18 23  1  0
 22 23  2  0
  7 24  1  0
  4 25  1  0
 24 25  1  0
M  END
