piperidine-amides-29272-covalent
     RDKit          3D

 26 27  0  0  0  0  0  0  0  0999 V2000
    6.9950   -3.3650   19.4090 C   0  0  0  0  0  0  0  0  0  0  0  0
    6.3690   -4.2420   20.4030 C   0  0  0  0  0  0  0  0  0  0  0  0
    5.4330   -4.9640   20.0090 O   0  0  0  0  0  0  0  0  0  0  0  0
    6.8380   -4.2790   21.7550 N   0  0  0  0  0  0  0  0  0  0  0  0
    6.6150   -5.4840   22.5240 C   0  0  0  0  0  0  0  0  0  0  0  0
    6.1600   -5.1850   23.9430 C   0  0  0  0  0  0  0  0  0  0  0  0
    6.1460   -3.6820   24.1120 C   0  0  0  0  0  0  0  0  0  0  0  0
    5.6630   -3.1520   25.4540 C   0  0  0  0  0  0  0  0  0  0  0  0
    5.1850   -2.0300   25.3950 O   0  0  0  0  0  0  0  0  0  0  0  0
    5.7070   -3.8850   26.6550 N   0  0  0  0  0  0  0  0  0  0  0  0
    4.5400   -4.4270   27.1760 C   0  0  0  0  0  0  0  0  0  0  0  0
    4.7370   -5.2840   28.2770 C   0  0  0  0  0  0  0  0  0  0  0  0
    5.5380   -4.9610   29.3630 C   0  0  0  0  0  0  0  0  0  0  0  0
    5.8060   -6.1300   30.1490 N   0  0  0  0  0  0  0  0  0  0  0  0
    6.2960   -7.1750   29.3780 C   0  0  0  0  0  0  0  0  0  0  0  0
    5.1490   -6.4710   31.4070 C   0  0  0  0  0  0  0  0  0  0  0  0
    3.7930   -6.4810   31.6020 O   0  0  0  0  0  0  0  0  0  0  0  0
    5.9890   -6.8090   32.4870 O   0  0  0  0  0  0  0  0  0  0  0  0
    5.4990   -7.3500   33.7060 C   0  0  0  0  0  0  0  0  0  0  0  0
    4.0820   -6.9660   33.8900 C   0  0  0  0  0  0  0  0  0  0  0  0
    5.6040   -8.8400   33.5090 C   0  0  0  0  0  0  0  0  0  0  0  0
    6.3450   -7.0710   34.7850 C   0  0  0  0  0  0  0  0  0  0  0  0
    6.6680   -4.5630   28.4510 C   0  0  0  0  0  0  0  0  0  0  0  0
    6.3840   -3.3860   27.7760 C   0  0  0  0  0  0  0  0  0  0  0  0
    7.4560   -3.0860   23.7470 C   0  0  0  0  0  0  0  0  0  0  0  0
    7.6890   -3.2260   22.2740 C   0  0  0  0  0  0  0  0  0  0  0  0
  1  2  1  0
  2  3  2  0
  2  4  1  0
  4  5  1  0
  5  6  1  0
  6  7  1  0
  7  8  1  0
  8  9  2  0
  8 10  1  0
 10 11  1  0
 11 12  1  0
 12 13  1  0
 13 14  1  0
 14 15  1  0
 14 16  1  0
 16 17  2  0
 16 18  1  0
 19 18  1  0
 19 20  1  0
 19 21  1  0
 19 22  1  0
 13 23  1  0
 10 24  1  0
 23 24  1  0
  7 25  1  0
  4 26  1  0
 25 26  1  0
M  END
