piperidine-amides-9171-covalent
     RDKit          3D

 21 22  0  0  0  0  0  0  0  0999 V2000
    7.1250   -3.2900   19.2520 C   0  0  0  0  0  0  0  0  0  0  0  0
    6.3950   -4.0710   20.2560 C   0  0  0  0  0  0  0  0  0  0  0  0
    5.3270   -4.6130   19.9180 O   0  0  0  0  0  0  0  0  0  0  0  0
    6.8940   -4.2770   21.5590 N   0  0  0  0  0  0  0  0  0  0  0  0
    6.6020   -5.4530   22.3260 C   0  0  0  0  0  0  0  0  0  0  0  0
    5.7150   -4.9770   23.4490 C   0  0  0  0  0  0  0  0  0  0  0  0
    6.2330   -3.7630   24.1900 C   0  0  0  0  0  0  0  0  0  0  0  0
    5.1610   -3.1560   25.0280 C   0  0  0  0  0  0  0  0  0  0  0  0
    3.9620   -3.2230   24.6510 O   0  0  0  0  0  0  0  0  0  0  0  0
    5.3790   -2.5040   26.2570 N   0  0  0  0  0  0  0  0  0  0  0  0
    6.4240   -3.0110   27.1190 C   0  0  0  0  0  0  0  0  0  0  0  0
    5.9480   -4.2410   27.7960 C   0  0  0  0  0  0  0  0  0  0  0  0
    6.0080   -4.3090   29.0470 O   0  0  0  0  0  0  0  0  0  0  0  0
    5.1830   -5.1910   29.6190 C   0  0  0  0  0  0  0  0  0  0  0  0
    3.8920   -5.0140   30.2970 N   0  0  0  0  0  0  0  0  0  0  0  0
    3.3330   -6.2930   30.7710 C   0  0  0  0  0  0  0  0  0  0  0  0
    4.0140   -7.6090   30.5740 C   0  0  0  0  0  0  0  0  0  0  0  0
    5.3110   -7.5830   29.8660 C   0  0  0  0  0  0  0  0  0  0  0  0
    5.7620   -6.3900   29.4650 N   0  0  0  0  0  0  0  0  0  0  0  0
    6.7800   -2.7160   23.2340 C   0  0  0  0  0  0  0  0  0  0  0  0
    7.6090   -3.2230   22.2310 C   0  0  0  0  0  0  0  0  0  0  0  0
  1  2  1  0
  2  3  2  0
  2  4  1  0
  4  5  1  0
  5  6  1  0
  6  7  1  0
  7  8  1  0
  8  9  2  0
  8 10  1  0
 10 11  1  0
 11 12  1  0
 12 13  1  0
 13 14  1  0
 14 15  2  0
 15 16  1  0
 16 17  2  0
 17 18  1  0
 14 19  1  0
 18 19  2  0
  7 20  1  0
  4 21  1  0
 20 21  1  0
M  END
