piperidine-amides-32967-covalent
     RDKit          3D

 28 29  0  0  0  0  0  0  0  0999 V2000
    7.1700   -3.3250   19.2010 C   0  0  0  0  0  0  0  0  0  0  0  0
    6.4070   -4.1100   20.1990 C   0  0  0  0  0  0  0  0  0  0  0  0
    5.2980   -4.5830   19.8970 O   0  0  0  0  0  0  0  0  0  0  0  0
    7.0100   -4.3530   21.4380 N   0  0  0  0  0  0  0  0  0  0  0  0
    6.7210   -5.5220   22.2190 C   0  0  0  0  0  0  0  0  0  0  0  0
    5.8190   -5.0420   23.3480 C   0  0  0  0  0  0  0  0  0  0  0  0
    6.5630   -3.9750   24.0870 C   0  0  0  0  0  0  0  0  0  0  0  0
    5.7350   -3.3430   25.1020 C   0  0  0  0  0  0  0  0  0  0  0  0
    4.9010   -2.5210   24.7150 O   0  0  0  0  0  0  0  0  0  0  0  0
    5.8700   -3.6840   26.4200 N   0  0  0  0  0  0  0  0  0  0  0  0
    4.8050   -4.2710   27.1020 C   0  0  0  0  0  0  0  0  0  0  0  0
    4.3730   -3.6820   28.2330 C   0  0  0  0  0  0  0  0  0  0  0  0
    5.3610   -3.3270   29.1040 C   0  0  0  0  0  0  0  0  0  0  0  0
    5.2030   -4.4810   29.8870 N   0  0  0  0  0  0  0  0  0  0  0  0
    5.9960   -5.5300   29.8620 C   0  0  0  0  0  0  0  0  0  0  0  0
    6.6860   -5.8810   28.7920 O   0  0  0  0  0  0  0  0  0  0  0  0
    6.0650   -6.2390   31.0040 O   0  0  0  0  0  0  0  0  0  0  0  0
    5.4250   -7.4590   31.0190 C   0  0  0  0  0  0  0  0  0  0  0  0
    5.7470   -8.1010   32.3720 C   0  0  0  0  0  0  0  0  0  0  0  0
    4.1270   -7.5240   30.6310 C   0  0  0  0  0  0  0  0  0  0  0  0
    6.1690   -8.2050   29.9650 C   0  0  0  0  0  0  0  0  0  0  0  0
    5.0160   -2.0850   29.6110 C   0  0  0  0  0  0  0  0  0  0  0  0
    4.0920   -2.1370   30.6070 F   0  0  0  0  0  0  0  0  0  0  0  0
    6.1600   -1.5580   30.1370 F   0  0  0  0  0  0  0  0  0  0  0  0
    6.5860   -3.1510   28.4500 C   0  0  0  0  0  0  0  0  0  0  0  0
    6.4990   -2.6350   27.1840 C   0  0  0  0  0  0  0  0  0  0  0  0
    7.1020   -2.8380   23.2890 C   0  0  0  0  0  0  0  0  0  0  0  0
    7.8090   -3.3180   22.0680 C   0  0  0  0  0  0  0  0  0  0  0  0
  1  2  1  0
  2  3  2  0
  2  4  1  0
  4  5  1  0
  5  6  1  0
  6  7  1  0
  7  8  1  0
  8  9  2  0
  8 10  1  0
 10 11  1  0
 11 12  1  0
 12 13  1  0
 13 14  1  0
 14 15  1  0
 15 16  2  0
 15 17  1  0
 18 17  1  0
 18 19  1  0
 18 20  1  0
 18 21  1  0
 13 22  1  0
 22 23  1  0
 22 24  1  0
 13 25  1  0
 10 26  1  0
 25 26  1  0
  7 27  1  0
  4 28  1  0
 27 28  1  0
M  END
