piperidine-amides-30457-covalent
     RDKit          3D

 27 29  0  0  0  0  0  0  0  0999 V2000
    7.0410   -3.3480   19.3470 C   0  0  0  0  0  0  0  0  0  0  0  0
    6.3860   -4.1930   20.3430 C   0  0  0  0  0  0  0  0  0  0  0  0
    5.4010   -4.8680   19.9940 O   0  0  0  0  0  0  0  0  0  0  0  0
    6.8700   -4.2920   21.6620 N   0  0  0  0  0  0  0  0  0  0  0  0
    7.7480   -3.3090   22.2560 C   0  0  0  0  0  0  0  0  0  0  0  0
    7.1670   -2.9760   23.6060 C   0  0  0  0  0  0  0  0  0  0  0  0
    6.4790   -4.1340   24.2900 C   0  0  0  0  0  0  0  0  0  0  0  0
    5.6850   -3.6810   25.4810 C   0  0  0  0  0  0  0  0  0  0  0  0
    4.6120   -3.0390   25.2820 O   0  0  0  0  0  0  0  0  0  0  0  0
    6.0240   -3.8990   26.8530 N   0  0  0  0  0  0  0  0  0  0  0  0
    5.5630   -2.9820   27.8950 C   0  0  0  0  0  0  0  0  0  0  0  0
    5.4580   -3.8070   29.1270 C   0  0  0  0  0  0  0  0  0  0  0  0
    4.4170   -4.6600   28.9920 N   0  0  0  0  0  0  0  0  0  0  0  0
    3.6530   -5.2380   30.0390 C   0  0  0  0  0  0  0  0  0  0  0  0
    4.3650   -6.0150   30.9050 N   0  0  0  0  0  0  0  0  0  0  0  0
    3.5670   -6.5270   31.8510 C   0  0  0  0  0  0  0  0  0  0  0  0
    2.2430   -6.0070   31.5140 C   0  0  0  0  0  0  0  0  0  0  0  0
    1.0490   -6.3530   32.3260 C   0  0  0  0  0  0  0  0  0  0  0  0
    0.9340   -5.7180   33.5340 O   0  0  0  0  0  0  0  0  0  0  0  0
    0.1270   -7.1570   32.0530 O   0  0  0  0  0  0  0  0  0  0  0  0
    0.1710   -8.5360   32.2690 C   0  0  0  0  0  0  0  0  0  0  0  0
    1.3010   -9.1550   31.7120 C   0  0  0  0  0  0  0  0  0  0  0  0
    2.2700   -5.2030   30.3990 O   0  0  0  0  0  0  0  0  0  0  0  0
    5.1600   -5.5900   28.3470 C   0  0  0  0  0  0  0  0  0  0  0  0
    6.2590   -5.2290   27.4000 C   0  0  0  0  0  0  0  0  0  0  0  0
    5.6180   -4.9020   23.2660 C   0  0  0  0  0  0  0  0  0  0  0  0
    6.3840   -5.3940   22.4750 C   0  0  0  0  0  0  0  0  0  0  0  0
  1  2  1  0
  2  3  2  0
  2  4  1  0
  4  5  1  0
  5  6  1  0
  6  7  1  0
  7  8  1  0
  8  9  2  0
  8 10  1  0
 10 11  1  0
 11 12  1  0
 12 13  1  0
 13 14  1  0
 14 15  2  0
 15 16  1  0
 16 17  2  0
 17 18  1  0
 18 19  2  0
 18 20  1  0
 20 21  1  0
 21 22  1  0
 14 23  1  0
 17 23  1  0
 13 24  1  0
 10 25  1  0
 24 25  1  0
  7 26  1  0
  4 27  1  0
 26 27  1  0
M  END
