piperidine-amides-27047-covalent
     RDKit          3D

 25 27  0  0  0  0  0  0  0  0999 V2000
    6.9890   -3.3780   19.4110 C   0  0  0  0  0  0  0  0  0  0  0  0
    6.3730   -4.2620   20.4140 C   0  0  0  0  0  0  0  0  0  0  0  0
    5.3970   -4.9470   20.0030 O   0  0  0  0  0  0  0  0  0  0  0  0
    6.8750   -4.3510   21.7260 N   0  0  0  0  0  0  0  0  0  0  0  0
    6.7230   -5.5730   22.5000 C   0  0  0  0  0  0  0  0  0  0  0  0
    6.1300   -5.2340   23.8460 C   0  0  0  0  0  0  0  0  0  0  0  0
    6.0110   -3.7440   23.9850 C   0  0  0  0  0  0  0  0  0  0  0  0
    5.5470   -3.2570   25.3200 C   0  0  0  0  0  0  0  0  0  0  0  0
    5.1290   -2.0860   25.3480 O   0  0  0  0  0  0  0  0  0  0  0  0
    5.4840   -3.9550   26.5550 N   0  0  0  0  0  0  0  0  0  0  0  0
    6.4060   -3.6510   27.5850 C   0  0  0  0  0  0  0  0  0  0  0  0
    6.7600   -4.9510   28.3020 C   0  0  0  0  0  0  0  0  0  0  0  0
    5.7890   -5.4840   29.0030 C   0  0  0  0  0  0  0  0  0  0  0  0
    4.6270   -4.7920   28.8250 C   0  0  0  0  0  0  0  0  0  0  0  0
    3.5900   -4.8110   29.7930 C   0  0  0  0  0  0  0  0  0  0  0  0
    2.3710   -4.1190   29.6670 C   0  0  0  0  0  0  0  0  0  0  0  0
    1.3810   -4.1770   30.6620 O   0  0  0  0  0  0  0  0  0  0  0  0
    0.7880   -5.4380   30.9250 C   0  0  0  0  0  0  0  0  0  0  0  0
   -0.0240   -5.7810   29.9190 F   0  0  0  0  0  0  0  0  0  0  0  0
   -0.0190   -5.3790   32.0030 F   0  0  0  0  0  0  0  0  0  0  0  0
    2.1850   -3.2980   28.3850 C   0  0  0  0  0  0  0  0  0  0  0  0
    3.2690   -3.2660   27.3480 C   0  0  0  0  0  0  0  0  0  0  0  0
    4.5030   -4.0550   27.6300 C   0  0  0  0  0  0  0  0  0  0  0  0
    7.3130   -3.0840   23.6350 C   0  0  0  0  0  0  0  0  0  0  0  0
    7.6910   -3.2700   22.3230 C   0  0  0  0  0  0  0  0  0  0  0  0
  1  2  1  0
  2  3  2  0
  2  4  1  0
  4  5  1  0
  5  6  1  0
  6  7  1  0
  7  8  1  0
  8  9  2  0
  8 10  1  0
 10 11  1  0
 11 12  1  0
 12 13  1  0
 13 14  1  0
 14 15  2  0
 15 16  1  0
 16 17  1  0
 17 18  1  0
 18 19  1  0
 18 20  1  0
 16 21  2  0
 21 22  1  0
 10 23  1  0
 14 23  1  0
 22 23  2  0
  7 24  1  0
  4 25  1  0
 24 25  1  0
M  END
