piperidine-amides-14359-covalent
     RDKit          3D

 22 23  0  0  0  0  0  0  0  0999 V2000
    7.0550   -3.3510   19.3620 C   0  0  0  0  0  0  0  0  0  0  0  0
    6.3430   -4.1540   20.3550 C   0  0  0  0  0  0  0  0  0  0  0  0
    5.3660   -4.8200   19.9730 O   0  0  0  0  0  0  0  0  0  0  0  0
    6.7880   -4.1910   21.7020 N   0  0  0  0  0  0  0  0  0  0  0  0
    7.7030   -3.1810   22.1620 C   0  0  0  0  0  0  0  0  0  0  0  0
    7.5680   -3.0540   23.6380 C   0  0  0  0  0  0  0  0  0  0  0  0
    6.1790   -3.5600   23.9200 C   0  0  0  0  0  0  0  0  0  0  0  0
    5.7520   -3.2400   25.3180 C   0  0  0  0  0  0  0  0  0  0  0  0
    4.6500   -3.6720   25.6480 O   0  0  0  0  0  0  0  0  0  0  0  0
    6.5940   -2.4800   26.1310 N   0  0  0  0  0  0  0  0  0  0  0  0
    6.0730   -1.6310   27.1620 C   0  0  0  0  0  0  0  0  0  0  0  0
    5.7190   -0.3240   26.7720 C   0  0  0  0  0  0  0  0  0  0  0  0
    5.7570    0.7160   27.7030 C   0  0  0  0  0  0  0  0  0  0  0  0
    5.7090    0.4120   29.1190 N   0  0  0  0  0  0  0  0  0  0  0  0
    4.4070    0.2660   29.6480 C   0  0  1  0  0  0  0  0  0  0  0  0
    3.5560   -0.7350   28.9270 C   0  0  0  0  0  0  0  0  0  0  0  0
    4.6250    0.1060   31.0000 C   0  0  0  0  0  0  0  0  0  0  0  0
    5.7800    0.7430   31.6870 C   0  0  0  0  0  0  0  0  0  0  0  0
    6.7440   -0.5460   29.3570 C   0  0  0  0  0  0  0  0  0  0  0  0
    7.0660   -1.5270   28.2390 C   0  0  0  0  0  0  0  0  0  0  0  0
    6.1510   -5.0640   23.7460 C   0  0  0  0  0  0  0  0  0  0  0  0
    6.6370   -5.3970   22.4930 C   0  0  0  0  0  0  0  0  0  0  0  0
  1  2  1  0
  2  3  2  0
  2  4  1  0
  4  5  1  0
  5  6  1  0
  6  7  1  0
  7  8  1  0
  8  9  2  0
  8 10  1  0
 10 11  1  0
 11 12  1  0
 12 13  1  0
 13 14  1  0
 14 15  1  0
 15 16  1  6
 15 17  1  0
 17 18  1  0
 14 19  1  0
 11 20  1  0
 19 20  1  0
  7 21  1  0
  4 22  1  0
 21 22  1  0
M  END
