piperidine-amides-2977-covalent
     RDKit          3D

 23 25  0  0  0  0  0  0  0  0999 V2000
    7.0630   -3.3720   19.3160 C   0  0  0  0  0  0  0  0  0  0  0  0
    6.3200   -4.1560   20.2970 C   0  0  0  0  0  0  0  0  0  0  0  0
    5.3130   -4.7680   19.9560 O   0  0  0  0  0  0  0  0  0  0  0  0
    6.7990   -4.2540   21.6430 N   0  0  0  0  0  0  0  0  0  0  0  0
    7.7030   -3.2390   22.1270 C   0  0  0  0  0  0  0  0  0  0  0  0
    7.5310   -3.0570   23.5950 C   0  0  0  0  0  0  0  0  0  0  0  0
    6.1910   -3.6550   23.9640 C   0  0  0  0  0  0  0  0  0  0  0  0
    5.9160   -3.2950   25.3740 C   0  0  0  0  0  0  0  0  0  0  0  0
    4.9100   -3.6730   26.0050 O   0  0  0  0  0  0  0  0  0  0  0  0
    6.8850   -2.4750   25.9890 N   0  0  0  0  0  0  0  0  0  0  0  0
    6.4780   -1.4330   26.8890 C   0  0  0  0  0  0  0  0  0  0  0  0
    6.9600   -1.2420   28.2660 C   0  0  0  0  0  0  0  0  0  0  0  0
    6.2800   -0.1000   28.7290 O   0  0  0  0  0  0  0  0  0  0  0  0
    5.4690    0.3860   27.7870 N   0  0  0  0  0  0  0  0  0  0  0  0
    5.5390   -0.3660   26.6580 C   0  0  0  0  0  0  0  0  0  0  0  0
    4.8470   -0.1950   25.4480 C   0  0  0  0  0  0  0  0  0  0  0  0
    3.4950    0.1220   25.4430 C   0  0  0  0  0  0  0  0  0  0  0  0
    2.7910    0.2970   24.1800 C   0  0  0  0  0  0  0  0  0  0  0  0
    3.4670    0.1480   23.0000 C   0  0  0  0  0  0  0  0  0  0  0  0
    4.8000   -0.1660   23.0280 C   0  0  0  0  0  0  0  0  0  0  0  0
    5.4890   -0.3360   24.2290 C   0  0  0  0  0  0  0  0  0  0  0  0
    6.0370   -5.0730   23.6840 C   0  0  0  0  0  0  0  0  0  0  0  0
    6.5840   -5.4260   22.4590 C   0  0  0  0  0  0  0  0  0  0  0  0
  1  2  1  0
  2  3  2  0
  2  4  1  0
  4  5  1  0
  5  6  1  0
  6  7  1  0
  7  8  1  0
  8  9  2  0
  8 10  1  0
 10 11  1  0
 11 12  2  0
 12 13  1  0
 13 14  1  0
 11 15  1  0
 14 15  2  0
 15 16  1  0
 16 17  2  0
 17 18  1  0
 18 19  2  0
 19 20  1  0
 16 21  1  0
 20 21  2  0
  7 22  1  0
  4 23  1  0
 22 23  1  0
M  END
