piperidine-amides-31361-covalent
     RDKit          3D

 23 24  0  0  0  0  0  0  0  0999 V2000
    7.0860   -3.4200   19.3220 C   0  0  0  0  0  0  0  0  0  0  0  0
    6.4180   -4.1820   20.3530 C   0  0  0  0  0  0  0  0  0  0  0  0
    5.3890   -4.8370   19.9950 O   0  0  0  0  0  0  0  0  0  0  0  0
    6.8910   -4.2740   21.6890 N   0  0  0  0  0  0  0  0  0  0  0  0
    7.7220   -3.1920   22.2590 C   0  0  0  0  0  0  0  0  0  0  0  0
    6.6660   -2.5670   23.2310 C   0  0  0  0  0  0  0  0  0  0  0  0
    6.3630   -3.6420   24.2460 C   0  0  0  0  0  0  0  0  0  0  0  0
    5.3980   -3.0710   25.3800 C   0  0  0  0  0  0  0  0  0  0  0  0
    4.3030   -2.8480   24.8850 O   0  0  0  0  0  0  0  0  0  0  0  0
    5.9660   -3.0140   26.5220 N   0  0  0  0  0  0  0  0  0  0  0  0
    6.3920   -3.5310   27.6930 C   0  0  0  0  0  0  0  0  0  0  0  0
    6.0560   -1.6220   26.9180 C   0  0  0  0  0  0  0  0  0  0  0  0
    5.5950   -0.4560   26.1680 C   0  0  0  0  0  0  0  0  0  0  0  0
    4.7820   -0.6170   24.4540 Br  0  0  0  0  0  0  0  0  0  0  0  0
    5.7100    0.9090   26.6550 C   0  0  0  0  0  0  0  0  0  0  0  0
    6.2540    1.2140   27.8400 N   0  0  0  0  0  0  0  0  0  0  0  0
    6.7530    0.1840   28.6790 C   0  0  0  0  0  0  0  0  0  0  0  0
    6.7060   -1.1860   28.3270 C   0  0  0  0  0  0  0  0  0  0  0  0
    7.2230   -1.9890   29.2330 N   0  0  0  0  0  0  0  0  0  0  0  0
    7.0800   -3.2330   28.8940 O   0  0  0  0  0  0  0  0  0  0  0  0
    8.3970   -1.5420   29.5510 O   0  0  0  0  0  0  0  0  0  0  0  0
    5.7510   -4.9150   23.6610 C   0  0  0  0  0  0  0  0  0  0  0  0
    6.6110   -5.4420   22.5060 C   0  0  0  0  0  0  0  0  0  0  0  0
  1  2  1  0
  2  3  2  0
  2  4  1  0
  4  5  1  0
  5  6  1  0
  6  7  1  0
  7  8  1  0
  8  9  2  0
  8 10  1  0
 10 11  1  0
 10 12  1  0
 12 13  2  0
 13 14  1  0
 13 15  1  0
 15 16  2  0
 16 17  1  0
 12 18  1  0
 17 18  2  0
 18 19  1  0
 19 20  2  0
 19 21  1  0
  7 22  1  0
  4 23  1  0
 22 23  1  0
M  CHG  2  19   1  21  -1
M  END
