piperidine-amides-25644-covalent
     RDKit          3D

 25 27  0  0  0  0  0  0  0  0999 V2000
    7.0960   -3.3210   19.2640 C   0  0  0  0  0  0  0  0  0  0  0  0
    6.4360   -4.1670   20.2860 C   0  0  0  0  0  0  0  0  0  0  0  0
    5.3920   -4.7340   19.9560 O   0  0  0  0  0  0  0  0  0  0  0  0
    7.0260   -4.3440   21.5360 N   0  0  0  0  0  0  0  0  0  0  0  0
    6.4690   -5.2960   22.4260 C   0  0  0  0  0  0  0  0  0  0  0  0
    5.4650   -4.5270   23.2190 C   0  0  0  0  0  0  0  0  0  0  0  0
    6.1870   -3.5530   24.1650 C   0  0  0  0  0  0  0  0  0  0  0  0
    6.0640   -4.2720   25.4260 C   0  0  0  0  0  0  0  0  0  0  0  0
    6.1210   -5.4810   25.3640 O   0  0  0  0  0  0  0  0  0  0  0  0
    5.7950   -3.7230   26.6810 N   0  0  0  0  0  0  0  0  0  0  0  0
    4.4210   -3.7830   27.0310 C   0  0  0  0  0  0  0  0  0  0  0  0
    4.5980   -3.6900   28.4350 C   0  0  0  0  0  0  0  0  0  0  0  0
    5.5690   -2.8610   28.7140 C   0  0  0  0  0  0  0  0  0  0  0  0
    5.7830   -2.0740   29.8550 C   0  0  0  0  0  0  0  0  0  0  0  0
    6.9200   -1.2860   29.9260 C   0  0  0  0  0  0  0  0  0  0  0  0
    7.6150   -0.3140   30.8650 C   0  0  0  0  0  0  0  0  0  0  0  0
    6.8470    0.8560   30.3590 C   0  0  0  0  0  0  0  0  0  0  0  0
    7.3260    1.4510   29.2410 O   0  0  0  0  0  0  0  0  0  0  0  0
    5.7150    1.3080   31.0030 O   0  0  0  0  0  0  0  0  0  0  0  0
    5.8190    2.3620   31.9710 C   0  0  0  0  0  0  0  0  0  0  0  0
    7.8150   -1.3340   28.7530 C   0  0  0  0  0  0  0  0  0  0  0  0
    6.5950   -2.0970   28.8610 C   0  0  0  0  0  0  0  0  0  0  0  0
    6.5910   -2.7600   27.5560 C   0  0  0  0  0  0  0  0  0  0  0  0
    7.6230   -3.3520   23.7100 C   0  0  0  0  0  0  0  0  0  0  0  0
    7.6710   -3.2240   22.2030 C   0  0  0  0  0  0  0  0  0  0  0  0
  1  2  1  0
  2  3  2  0
  2  4  1  0
  4  5  1  0
  5  6  1  0
  6  7  1  0
  7  8  1  0
  8  9  2  0
  8 10  1  0
 10 11  1  0
 11 12  1  0
 12 13  1  0
 13 14  1  0
 14 15  2  0
 15 16  1  0
 16 17  1  0
 17 18  2  0
 17 19  1  0
 19 20  1  0
 15 21  1  0
 21 22  2  0
 10 23  1  0
 13 23  2  0
 22 23  1  0
  7 24  1  0
  4 25  1  0
 24 25  1  0
M  END
