piperidine-amides-29812-covalent
     RDKit          3D

 26 28  0  0  0  0  0  0  0  0999 V2000
    7.0710   -3.3290   19.3320 C   0  0  0  0  0  0  0  0  0  0  0  0
    6.3620   -4.1680   20.2930 C   0  0  0  0  0  0  0  0  0  0  0  0
    5.3470   -4.7770   19.9580 O   0  0  0  0  0  0  0  0  0  0  0  0
    6.8790   -4.3260   21.6210 N   0  0  0  0  0  0  0  0  0  0  0  0
    6.6630   -5.5780   22.3060 C   0  0  0  0  0  0  0  0  0  0  0  0
    6.0280   -5.3210   23.6390 C   0  0  0  0  0  0  0  0  0  0  0  0
    6.1640   -3.8400   23.8820 C   0  0  0  0  0  0  0  0  0  0  0  0
    5.6530   -3.4920   25.2330 C   0  0  0  0  0  0  0  0  0  0  0  0
    4.5210   -2.9980   25.3860 O   0  0  0  0  0  0  0  0  0  0  0  0
    6.4350   -3.7110   26.3880 N   0  0  0  0  0  0  0  0  0  0  0  0
    6.2600   -2.6410   27.3810 C   0  0  0  0  0  0  0  0  0  0  0  0
    6.7930   -3.0460   28.7260 C   0  0  0  0  0  0  0  0  0  0  0  0
    6.9960   -4.3630   28.8890 C   0  0  0  0  0  0  0  0  0  0  0  0
    6.2230   -5.0830   28.0740 C   0  0  2  0  0  0  0  0  0  0  0  0
    5.5130   -6.1110   28.7220 N   0  0  0  0  0  0  0  0  0  0  0  0
    4.9000   -7.2680   28.3140 C   0  0  0  0  0  0  0  0  0  0  0  0
    4.3590   -7.8120   29.4880 C   0  0  0  0  0  0  0  0  0  0  0  0
    4.6050   -7.0610   30.5940 C   0  0  0  0  0  0  0  0  0  0  0  0
    4.2350   -7.2680   31.9120 C   0  0  0  0  0  0  0  0  0  0  0  0
    5.3000   -7.6680   32.6580 F   0  0  0  0  0  0  0  0  0  0  0  0
    3.2620   -8.2390   31.9510 F   0  0  0  0  0  0  0  0  0  0  0  0
    3.6520   -6.1110   32.4320 F   0  0  0  0  0  0  0  0  0  0  0  0
    5.3460   -5.9800   30.0730 N   0  0  0  0  0  0  0  0  0  0  0  0
    6.7030   -5.0840   26.8020 C   0  0  0  0  0  0  0  0  0  0  0  0
    7.4700   -3.3100   23.6020 C   0  0  0  0  0  0  0  0  0  0  0  0
    7.7000   -3.3030   22.2390 C   0  0  0  0  0  0  0  0  0  0  0  0
  1  2  1  0
  2  3  2  0
  2  4  1  0
  4  5  1  0
  5  6  1  0
  6  7  1  0
  7  8  1  0
  8  9  2  0
  8 10  1  0
 10 11  1  0
 11 12  1  0
 12 13  1  0
 13 14  1  0
 14 15  1  1
 15 16  1  0
 16 17  2  0
 17 18  1  0
 18 19  1  0
 19 20  1  0
 19 21  1  0
 19 22  1  0
 15 23  1  0
 18 23  2  0
 10 24  1  0
 14 24  1  0
  7 25  1  0
  4 26  1  0
 25 26  1  0
M  END
