piperidine-amides-12810-covalent
     RDKit          3D

 22 23  0  0  0  0  0  0  0  0999 V2000
    7.0460   -3.3120   19.2450 C   0  0  0  0  0  0  0  0  0  0  0  0
    6.3630   -4.0920   20.3050 C   0  0  0  0  0  0  0  0  0  0  0  0
    5.3510   -4.7250   19.9480 O   0  0  0  0  0  0  0  0  0  0  0  0
    6.8620   -4.1510   21.6260 N   0  0  0  0  0  0  0  0  0  0  0  0
    6.6200   -5.3250   22.4010 C   0  0  0  0  0  0  0  0  0  0  0  0
    6.0110   -5.0140   23.6890 C   0  0  0  0  0  0  0  0  0  0  0  0
    6.0640   -3.5710   23.9920 C   0  0  0  0  0  0  0  0  0  0  0  0
    5.5670   -3.2580   25.3680 C   0  0  0  0  0  0  0  0  0  0  0  0
    4.3390   -3.3040   25.5370 O   0  0  0  0  0  0  0  0  0  0  0  0
    6.4000   -2.9170   26.4570 N   0  0  0  0  0  0  0  0  0  0  0  0
    6.3530   -3.6240   27.7700 C   0  0  0  0  0  0  0  0  0  0  0  0
    5.0740   -3.4760   28.5250 C   0  0  0  0  0  0  0  0  0  0  0  0
    4.1880   -2.3590   28.3350 C   0  0  0  0  0  0  0  0  0  0  0  0
    3.0250   -2.2340   29.0300 C   0  0  0  0  0  0  0  0  0  0  0  0
    2.6460   -3.1900   29.9600 C   0  0  0  0  0  0  0  0  0  0  0  0
    1.5220   -3.0170   30.5970 O   0  0  0  0  0  0  0  0  0  0  0  0
    0.9470   -3.8810   31.5180 C   0  0  0  0  0  0  0  0  0  0  0  0
    0.5200   -5.0550   30.9670 C   0  0  0  0  0  0  0  0  0  0  0  0
    3.3940   -4.3910   30.3050 N   0  0  0  0  0  0  0  0  0  0  0  0
    4.6570   -4.4210   29.4750 C   0  0  0  0  0  0  0  0  0  0  0  0
    7.4450   -3.0570   23.6850 C   0  0  0  0  0  0  0  0  0  0  0  0
    7.6830   -3.0850   22.2090 C   0  0  0  0  0  0  0  0  0  0  0  0
  1  2  1  0
  2  3  2  0
  2  4  1  0
  4  5  1  0
  5  6  1  0
  6  7  1  0
  7  8  1  0
  8  9  2  0
  8 10  1  0
 10 11  1  0
 11 12  1  0
 12 13  2  0
 13 14  1  0
 14 15  2  0
 15 16  1  0
 16 17  1  0
 17 18  1  0
 15 19  1  0
 12 20  1  0
 19 20  2  0
  7 21  1  0
  4 22  1  0
 21 22  1  0
M  END
