piperidine-amides-8513-covalent
     RDKit          3D

 24 26  0  0  0  0  0  0  0  0999 V2000
    7.1150   -3.3070   19.2520 C   0  0  0  0  0  0  0  0  0  0  0  0
    6.3600   -4.0720   20.2380 C   0  0  0  0  0  0  0  0  0  0  0  0
    5.2710   -4.5580   19.8890 O   0  0  0  0  0  0  0  0  0  0  0  0
    6.8950   -4.2960   21.5240 N   0  0  0  0  0  0  0  0  0  0  0  0
    6.4840   -5.4640   22.2460 C   0  0  0  0  0  0  0  0  0  0  0  0
    5.7450   -5.0230   23.4660 C   0  0  0  0  0  0  0  0  0  0  0  0
    6.6160   -3.9840   24.1350 C   0  0  0  0  0  0  0  0  0  0  0  0
    5.9090   -3.4130   25.3200 C   0  0  0  0  0  0  0  0  0  0  0  0
    4.7070   -3.6640   25.4070 O   0  0  0  0  0  0  0  0  0  0  0  0
    6.6530   -2.6590   26.2170 N   0  0  0  0  0  0  0  0  0  0  0  0
    6.2660   -2.4710   27.5790 C   0  0  0  0  0  0  0  0  0  0  0  0
    5.3460   -1.4160   27.7520 C   0  0  1  0  0  0  0  0  0  0  0  0
    5.9650   -0.5540   28.7950 N   0  0  0  0  0  0  0  0  0  0  0  0
    6.3000   -0.9000   30.1330 C   0  0  0  0  0  0  0  0  0  0  0  0
    7.4820   -0.3180   30.5850 C   0  0  0  0  0  0  0  0  0  0  0  0
    7.4180    1.0710   30.6650 O   0  0  0  0  0  0  0  0  0  0  0  0
    6.5910    1.5930   29.7130 C   0  0  0  0  0  0  0  0  0  0  0  0
    5.9940    0.7620   28.5670 C   0  0  0  0  0  0  0  0  0  0  0  0
    5.2080   -0.5550   26.6550 C   0  0  0  0  0  0  0  0  0  0  0  0
    3.8940    0.1380   26.5110 C   0  0  0  0  0  0  0  0  0  0  0  0
    2.8760   -0.6510   27.7000 S   0  0  0  0  0  0  0  0  0  0  0  0
    4.1170   -1.7970   28.3400 C   0  0  0  0  0  0  0  0  0  0  0  0
    6.8570   -2.8230   23.1990 C   0  0  0  0  0  0  0  0  0  0  0  0
    7.6780   -3.2950   22.2090 C   0  0  0  0  0  0  0  0  0  0  0  0
  1  2  1  0
  2  3  2  0
  2  4  1  0
  4  5  1  0
  5  6  1  0
  6  7  1  0
  7  8  1  0
  8  9  2  0
  8 10  1  0
 10 11  1  0
 12 11  1  6
 12 13  1  0
 13 14  1  0
 14 15  1  0
 15 16  1  0
 16 17  1  0
 13 18  1  0
 17 18  1  0
 12 19  1  0
 19 20  1  0
 20 21  1  0
 12 22  1  0
 21 22  1  0
  7 23  1  0
  4 24  1  0
 23 24  1  0
M  END
