piperidine-amides-11476-covalent
     RDKit          3D

 24 26  0  0  0  0  0  0  0  0999 V2000
    7.1050   -3.3340   19.2620 C   0  0  0  0  0  0  0  0  0  0  0  0
    6.4160   -4.1310   20.2740 C   0  0  0  0  0  0  0  0  0  0  0  0
    5.3800   -4.7450   19.9610 O   0  0  0  0  0  0  0  0  0  0  0  0
    6.9460   -4.2480   21.5640 N   0  0  0  0  0  0  0  0  0  0  0  0
    7.8090   -3.2360   22.1270 C   0  0  0  0  0  0  0  0  0  0  0  0
    7.0980   -2.7720   23.3480 C   0  0  0  0  0  0  0  0  0  0  0  0
    6.5450   -3.9190   24.1300 C   0  0  0  0  0  0  0  0  0  0  0  0
    5.7840   -3.4330   25.2920 C   0  0  0  0  0  0  0  0  0  0  0  0
    4.5920   -3.8090   25.4780 O   0  0  0  0  0  0  0  0  0  0  0  0
    6.3130   -2.5110   26.2110 N   0  0  0  0  0  0  0  0  0  0  0  0
    5.4100   -1.4500   26.6940 C   0  0  2  0  0  0  0  0  0  0  0  0
    5.9740   -0.1250   26.5210 C   0  0  0  0  0  0  0  0  0  0  0  0
    6.2280    0.4470   27.8710 C   0  0  0  0  0  0  0  0  0  0  0  0
    6.1330   -0.5060   28.7110 O   0  0  0  0  0  0  0  0  0  0  0  0
    5.2460   -1.4270   28.1620 C   0  0  2  0  0  0  0  0  0  0  0  0
    5.3650   -2.9010   28.4770 C   0  0  0  0  0  0  0  0  0  0  0  0
    4.0950   -3.6930   28.5120 C   0  0  0  0  0  0  0  0  0  0  0  0
    4.1300   -5.0380   28.7830 C   0  0  0  0  0  0  0  0  0  0  0  0
    5.2400   -5.8330   29.0450 C   0  0  0  0  0  0  0  0  0  0  0  0
    5.0700   -7.5530   29.3730 Cl  0  0  0  0  0  0  0  0  0  0  0  0
    6.5570   -5.1210   29.0280 C   0  0  0  0  0  0  0  0  0  0  0  0
    6.6560   -3.6260   28.7460 C   0  0  0  0  0  0  0  0  0  0  0  0
    5.6920   -4.8240   23.2200 C   0  0  0  0  0  0  0  0  0  0  0  0
    6.4330   -5.3190   22.4090 C   0  0  0  0  0  0  0  0  0  0  0  0
  1  2  1  0
  2  3  2  0
  2  4  1  0
  4  5  1  0
  5  6  1  0
  6  7  1  0
  7  8  1  0
  8  9  2  0
  8 10  1  0
 11 10  1  1
 11 12  1  0
 12 13  1  0
 13 14  1  0
 11 15  1  0
 14 15  1  0
 15 16  1  1
 16 17  2  0
 17 18  1  0
 18 19  2  0
 19 20  1  0
 19 21  1  0
 16 22  1  0
 21 22  2  0
  7 23  1  0
  4 24  1  0
 23 24  1  0
M  END
