piperidine-amides-2380-covalent
     RDKit          3D

 27 29  0  0  0  0  0  0  0  0999 V2000
    7.1160   -3.2950   19.2630 C   0  0  0  0  0  0  0  0  0  0  0  0
    6.3420   -4.0560   20.2710 C   0  0  0  0  0  0  0  0  0  0  0  0
    5.2940   -4.5790   19.9010 O   0  0  0  0  0  0  0  0  0  0  0  0
    6.8520   -4.1820   21.5670 N   0  0  0  0  0  0  0  0  0  0  0  0
    7.5610   -3.1000   22.1820 C   0  0  0  0  0  0  0  0  0  0  0  0
    6.7660   -2.6170   23.3600 C   0  0  0  0  0  0  0  0  0  0  0  0
    6.5270   -3.7850   24.3220 C   0  0  0  0  0  0  0  0  0  0  0  0
    5.7140   -3.2850   25.4610 C   0  0  0  0  0  0  0  0  0  0  0  0
    4.5000   -3.1150   25.2830 O   0  0  0  0  0  0  0  0  0  0  0  0
    6.2680   -3.0010   26.7350 N   0  0  0  0  0  0  0  0  0  0  0  0
    6.2940   -4.0430   27.7490 C   0  0  0  0  0  0  0  0  0  0  0  0
    5.1500   -3.8680   28.7140 C   0  0  0  0  0  0  0  0  0  0  0  0
    4.9120   -2.6890   29.4470 C   0  0  0  0  0  0  0  0  0  0  0  0
    3.8570   -2.5440   30.3370 C   0  0  0  0  0  0  0  0  0  0  0  0
    3.0230   -3.6040   30.4950 C   0  0  0  0  0  0  0  0  0  0  0  0
    3.1710   -4.8840   29.7850 C   0  0  0  0  0  0  0  0  0  0  0  0
    2.1010   -5.8560   30.1700 C   0  0  0  0  0  0  0  0  0  0  0  0
    0.7960   -5.5130   30.3730 O   0  0  0  0  0  0  0  0  0  0  0  0
    2.5700   -7.2340   30.3130 N   0  0  0  0  0  0  0  0  0  0  0  0
    2.7270   -7.4850   31.7350 C   0  0  0  0  0  0  0  0  0  0  0  0
    2.1080   -8.6620   32.4200 C   0  0  0  0  0  0  0  0  0  0  0  0
    0.8310   -9.0920   31.8000 C   0  0  0  0  0  0  0  0  0  0  0  0
    0.4980   -8.4910   30.4580 C   0  0  0  0  0  0  0  0  0  0  0  0
    1.6520   -8.1030   29.6060 C   0  0  0  0  0  0  0  0  0  0  0  0
    4.3120   -4.9800   28.8500 C   0  0  0  0  0  0  0  0  0  0  0  0
    5.7630   -4.8760   23.6050 C   0  0  0  0  0  0  0  0  0  0  0  0
    6.4500   -5.3220   22.3360 C   0  0  0  0  0  0  0  0  0  0  0  0
  1  2  1  0
  2  3  2  0
  2  4  1  0
  4  5  1  0
  5  6  1  0
  6  7  1  0
  7  8  1  0
  8  9  2  0
  8 10  1  0
 10 11  1  0
 11 12  1  0
 12 13  2  0
 13 14  1  0
 14 15  2  0
 15 16  1  0
 16 17  1  0
 17 18  2  0
 17 19  1  0
 19 20  1  0
 20 21  1  0
 21 22  1  0
 22 23  1  0
 19 24  1  0
 23 24  1  0
 12 25  1  0
 16 25  2  0
  7 26  1  0
  4 27  1  0
 26 27  1  0
M  END
