piperidine-amides-12993-covalent
     RDKit          3D

 21 22  0  0  0  0  0  0  0  0999 V2000
    7.0770   -3.3160   19.2370 C   0  0  0  0  0  0  0  0  0  0  0  0
    6.2680   -4.0850   20.2090 C   0  0  0  0  0  0  0  0  0  0  0  0
    5.1560   -4.4660   19.8250 O   0  0  0  0  0  0  0  0  0  0  0  0
    6.7600   -4.4180   21.4710 N   0  0  0  0  0  0  0  0  0  0  0  0
    7.5260   -3.4750   22.1850 C   0  0  0  0  0  0  0  0  0  0  0  0
    7.6900   -3.7570   23.6060 C   0  0  0  0  0  0  0  0  0  0  0  0
    6.6110   -4.5080   24.2700 C   0  0  0  0  0  0  0  0  0  0  0  0
    6.0680   -3.6360   25.3330 C   0  0  0  0  0  0  0  0  0  0  0  0
    4.8500   -3.3590   25.3490 O   0  0  0  0  0  0  0  0  0  0  0  0
    6.9450   -3.1320   26.3070 N   0  0  0  0  0  0  0  0  0  0  0  0
    7.7100   -1.8760   26.1220 C   0  0  0  0  0  0  0  0  0  0  0  0
    8.5750   -1.7930   24.8780 C   0  0  0  0  0  0  0  0  0  0  0  0
    8.1460   -1.5680   23.5240 C   0  0  0  0  0  0  0  0  0  0  0  0
    9.0310   -1.5030   22.4880 C   0  0  0  0  0  0  0  0  0  0  0  0
   10.3890   -1.6510   22.7110 C   0  0  0  0  0  0  0  0  0  0  0  0
   11.2260   -1.5770   21.6560 F   0  0  0  0  0  0  0  0  0  0  0  0
   10.9010   -1.8620   23.9620 C   0  0  0  0  0  0  0  0  0  0  0  0
   12.7910   -2.0370   24.1570 Br  0  0  0  0  0  0  0  0  0  0  0  0
   10.0750   -1.9430   25.0640 C   0  0  0  0  0  0  0  0  0  0  0  0
    5.5940   -5.1000   23.3680 C   0  0  0  0  0  0  0  0  0  0  0  0
    6.2150   -5.5350   22.1930 C   0  0  0  0  0  0  0  0  0  0  0  0
  1  2  1  0
  2  3  2  0
  2  4  1  0
  4  5  1  0
  5  6  1  0
  6  7  1  0
  7  8  1  0
  8  9  2  0
  8 10  1  0
 10 11  1  0
 11 12  1  0
 12 13  2  0
 13 14  1  0
 14 15  2  0
 15 16  1  0
 15 17  1  0
 17 18  1  0
 12 19  1  0
 17 19  2  0
  7 20  1  0
  4 21  1  0
 20 21  1  0
M  END
