piperidine-amides-32198-covalent
     RDKit          3D

 27 29  0  0  0  0  0  0  0  0999 V2000
    7.0810   -3.3160   19.2980 C   0  0  0  0  0  0  0  0  0  0  0  0
    6.3630   -4.1530   20.2940 C   0  0  0  0  0  0  0  0  0  0  0  0
    5.3240   -4.7380   19.9510 O   0  0  0  0  0  0  0  0  0  0  0  0
    6.9090   -4.3110   21.5790 N   0  0  0  0  0  0  0  0  0  0  0  0
    7.7090   -3.2990   22.2360 C   0  0  0  0  0  0  0  0  0  0  0  0
    6.8720   -2.7490   23.3870 C   0  0  0  0  0  0  0  0  0  0  0  0
    6.6180   -3.8910   24.3140 C   0  0  0  0  0  0  0  0  0  0  0  0
    5.8010   -3.5080   25.4840 C   0  0  0  0  0  0  0  0  0  0  0  0
    4.5650   -3.5040   25.3550 O   0  0  0  0  0  0  0  0  0  0  0  0
    6.4190   -3.1660   26.6890 N   0  0  0  0  0  0  0  0  0  0  0  0
    6.6500   -4.1460   27.7130 C   0  0  0  0  0  0  0  0  0  0  0  0
    7.2950   -5.3550   27.5080 C   0  0  0  0  0  0  0  0  0  0  0  0
    6.3010   -6.3790   27.7790 O   0  0  0  0  0  0  0  0  0  0  0  0
    6.4410   -1.8380   27.2630 C   0  0  0  0  0  0  0  0  0  0  0  0
    6.9430   -1.7020   28.5200 C   0  0  0  0  0  0  0  0  0  0  0  0
    7.0210   -0.4290   29.2460 C   0  0  0  0  0  0  0  0  0  0  0  0
    7.5450   -0.4010   30.5230 F   0  0  0  0  0  0  0  0  0  0  0  0
    6.5220    0.8580   28.5910 C   0  0  0  0  0  0  0  0  0  0  0  0
    5.9790    0.6160   27.1720 C   0  0  0  0  0  0  0  0  0  0  0  0
    5.5040    1.7430   26.5000 C   0  0  0  0  0  0  0  0  0  0  0  0
    5.5790    3.2850   27.3270 Cl  0  0  0  0  0  0  0  0  0  0  0  0
    4.9470    1.6740   25.1250 C   0  0  0  0  0  0  0  0  0  0  0  0
    5.0440    0.2220   24.7470 C   0  0  0  0  0  0  0  0  0  0  0  0
    5.4950   -0.8610   25.3770 N   0  0  0  0  0  0  0  0  0  0  0  0
    5.9710   -0.6780   26.6080 C   0  0  0  0  0  0  0  0  0  0  0  0
    5.9330   -5.0580   23.6670 C   0  0  0  0  0  0  0  0  0  0  0  0
    6.5690   -5.4810   22.3670 C   0  0  0  0  0  0  0  0  0  0  0  0
  1  2  1  0
  2  3  2  0
  2  4  1  0
  4  5  1  0
  5  6  1  0
  6  7  1  0
  7  8  1  0
  8  9  2  0
  8 10  1  0
 10 11  1  0
 11 12  1  0
 12 13  1  0
 10 14  1  0
 14 15  2  0
 15 16  1  0
 16 17  1  0
 16 18  2  0
 18 19  1  0
 19 20  1  0
 20 21  1  0
 20 22  2  0
 22 23  1  0
 23 24  2  0
 14 25  1  0
 19 25  2  0
 24 25  1  0
  7 26  1  0
  4 27  1  0
 26 27  1  0
M  END
