piperidine-amides-8090-covalent
     RDKit          3D

 26 27  0  0  0  0  0  0  0  0999 V2000
    7.0990   -3.2810   19.2500 C   0  0  0  0  0  0  0  0  0  0  0  0
    6.3860   -4.0760   20.2490 C   0  0  0  0  0  0  0  0  0  0  0  0
    5.3170   -4.6140   19.9110 O   0  0  0  0  0  0  0  0  0  0  0  0
    6.9360   -4.2660   21.5430 N   0  0  0  0  0  0  0  0  0  0  0  0
    7.6340   -3.1750   22.1520 C   0  0  0  0  0  0  0  0  0  0  0  0
    6.8550   -2.7130   23.3460 C   0  0  0  0  0  0  0  0  0  0  0  0
    6.7030   -3.9010   24.2780 C   0  0  0  0  0  0  0  0  0  0  0  0
    6.0520   -3.4440   25.5500 C   0  0  0  0  0  0  0  0  0  0  0  0
    4.8270   -3.3100   25.5090 O   0  0  0  0  0  0  0  0  0  0  0  0
    6.8590   -3.1770   26.6720 N   0  0  0  0  0  0  0  0  0  0  0  0
    7.5510   -4.1810   27.4270 C   0  0  2  0  0  0  0  0  0  0  0  0
    8.2040   -5.1670   26.6820 C   0  0  0  0  0  0  0  0  0  0  0  0
    9.5210   -5.4110   26.9730 C   0  0  0  0  0  0  0  0  0  0  0  0
   10.3360   -4.6950   26.1240 O   0  0  0  0  0  0  0  0  0  0  0  0
    6.5460   -4.8170   28.3500 C   0  0  0  0  0  0  0  0  0  0  0  0
    6.8670   -6.2000   28.7920 C   0  0  0  0  0  0  0  0  0  0  0  0
    5.9910   -7.0530   29.7360 C   0  0  0  0  0  0  0  0  0  0  0  0
    4.7430   -6.4020   30.2180 C   0  0  0  0  0  0  0  0  0  0  0  0
    4.5230   -4.9990   29.7060 C   0  0  0  0  0  0  0  0  0  0  0  0
    3.2390   -4.2620   30.1730 C   0  0  0  0  0  0  0  0  0  0  0  0
    3.2770   -2.9020   30.3840 F   0  0  0  0  0  0  0  0  0  0  0  0
    2.2420   -4.4610   29.2150 F   0  0  0  0  0  0  0  0  0  0  0  0
    2.8710   -4.7970   31.3590 F   0  0  0  0  0  0  0  0  0  0  0  0
    5.3540   -4.2910   28.8560 C   0  0  0  0  0  0  0  0  0  0  0  0
    5.7970   -4.8890   23.5890 C   0  0  0  0  0  0  0  0  0  0  0  0
    6.4160   -5.3730   22.3010 C   0  0  0  0  0  0  0  0  0  0  0  0
  1  2  1  0
  2  3  2  0
  2  4  1  0
  4  5  1  0
  5  6  1  0
  6  7  1  0
  7  8  1  0
  8  9  2  0
  8 10  1  0
 10 11  1  0
 11 12  1  6
 12 13  1  0
 13 14  1  0
 11 15  1  0
 15 16  2  0
 16 17  1  0
 17 18  2  0
 18 19  1  0
 19 20  1  0
 20 21  1  0
 20 22  1  0
 20 23  1  0
 15 24  1  0
 19 24  2  0
  7 25  1  0
  4 26  1  0
 25 26  1  0
M  END
