piperidine-amides-29320-covalent
     RDKit          3D

 26 27  0  0  0  0  0  0  0  0999 V2000
    7.1210   -3.2950   19.2860 C   0  0  0  0  0  0  0  0  0  0  0  0
    6.3560   -4.0510   20.2740 C   0  0  0  0  0  0  0  0  0  0  0  0
    5.2940   -4.5810   19.9030 O   0  0  0  0  0  0  0  0  0  0  0  0
    6.8540   -4.2120   21.5950 N   0  0  0  0  0  0  0  0  0  0  0  0
    7.6880   -3.1730   22.1530 C   0  0  0  0  0  0  0  0  0  0  0  0
    7.4220   -3.0080   23.6240 C   0  0  0  0  0  0  0  0  0  0  0  0
    6.0840   -3.6550   23.8660 C   0  0  0  0  0  0  0  0  0  0  0  0
    5.4920   -3.3170   25.1990 C   0  0  0  0  0  0  0  0  0  0  0  0
    4.2670   -3.2240   25.2140 O   0  0  0  0  0  0  0  0  0  0  0  0
    6.2980   -3.1130   26.3110 N   0  0  0  0  0  0  0  0  0  0  0  0
    6.8190   -1.7880   26.4590 C   0  0  0  0  0  0  0  0  0  0  0  0
    5.8440   -3.7340   27.5200 C   0  0  1  0  0  0  0  0  0  0  0  0
    5.8570   -5.1140   27.6500 C   0  0  0  0  0  0  0  0  0  0  0  0
    5.5830   -5.7450   26.4650 O   0  0  0  0  0  0  0  0  0  0  0  0
    4.5950   -6.5050   25.9960 C   0  0  0  0  0  0  0  0  0  0  0  0
    6.5180   -3.1560   28.7490 C   0  0  0  0  0  0  0  0  0  0  0  0
    5.6450   -2.1370   29.5150 C   0  0  0  0  0  0  0  0  0  0  0  0
    4.2090   -2.4280   29.6570 C   0  0  0  0  0  0  0  0  0  0  0  0
    3.3220   -1.4800   30.3900 C   0  0  0  0  0  0  0  0  0  0  0  0
    4.0430   -0.2280   30.9530 C   0  0  0  0  0  0  0  0  0  0  0  0
    3.3520    0.7330   31.6530 F   0  0  0  0  0  0  0  0  0  0  0  0
    5.4050   -0.0860   30.7410 C   0  0  0  0  0  0  0  0  0  0  0  0
    6.2080   -0.9830   30.0540 C   0  0  0  0  0  0  0  0  0  0  0  0
    7.5360   -0.7610   29.8950 F   0  0  0  0  0  0  0  0  0  0  0  0
    6.1410   -5.1280   23.6940 C   0  0  0  0  0  0  0  0  0  0  0  0
    6.6400   -5.4410   22.3160 C   0  0  0  0  0  0  0  0  0  0  0  0
  1  2  1  0
  2  3  2  0
  2  4  1  0
  4  5  1  0
  5  6  1  0
  6  7  1  0
  7  8  1  0
  8  9  2  0
  8 10  1  0
 10 11  1  0
 10 12  1  0
 12 13  1  6
 13 14  1  0
 14 15  1  0
 12 16  1  0
 16 17  1  0
 17 18  2  0
 18 19  1  0
 19 20  2  0
 20 21  1  0
 20 22  1  0
 17 23  1  0
 22 23  2  0
 23 24  1  0
  7 25  1  0
  4 26  1  0
 25 26  1  0
M  END
