piperidine-amides-1545-covalent
     RDKit          3D

 21 23  0  0  0  0  0  0  0  0999 V2000
    7.0580   -3.3310   19.3200 C   0  0  0  0  0  0  0  0  0  0  0  0
    6.3840   -4.2280   20.3170 C   0  0  0  0  0  0  0  0  0  0  0  0
    5.3660   -4.8420   19.9780 O   0  0  0  0  0  0  0  0  0  0  0  0
    6.9180   -4.3940   21.6160 N   0  0  0  0  0  0  0  0  0  0  0  0
    6.7130   -5.6440   22.3020 C   0  0  0  0  0  0  0  0  0  0  0  0
    6.5320   -5.3490   23.7920 C   0  0  0  0  0  0  0  0  0  0  0  0
    6.2920   -3.8870   23.9110 C   0  0  0  0  0  0  0  0  0  0  0  0
    5.7060   -3.5160   25.2320 C   0  0  0  0  0  0  0  0  0  0  0  0
    4.4720   -3.6410   25.3270 O   0  0  0  0  0  0  0  0  0  0  0  0
    6.4860   -3.0230   26.2890 N   0  0  0  0  0  0  0  0  0  0  0  0
    6.5170   -1.6520   26.5980 C   0  0  0  0  0  0  0  0  0  0  0  0
    6.4110   -0.7030   25.3770 C   0  0  0  0  0  0  0  0  0  0  0  0
    6.5180    0.8070   26.3820 S   0  0  0  0  0  0  0  0  0  0  0  0
    6.5880   -0.3770   27.2800 C   0  0  0  0  0  0  0  0  0  0  0  0
    6.6690    0.5370   28.2930 N   0  0  0  0  0  0  0  0  0  0  0  0
    6.6790    1.8100   28.4800 C   0  0  0  0  0  0  0  0  0  0  0  0
    6.7960    0.9290   29.6300 C   0  0  0  0  0  0  0  0  0  0  0  0
    6.7800   -0.6460   29.4590 C   0  0  0  0  0  0  0  0  0  0  0  0
    6.6520   -1.4430   28.0900 C   0  0  0  0  0  0  0  0  0  0  0  0
    7.5780   -3.1170   23.5910 C   0  0  0  0  0  0  0  0  0  0  0  0
    7.7820   -3.3250   22.1220 C   0  0  0  0  0  0  0  0  0  0  0  0
  1  2  1  0
  2  3  2  0
  2  4  1  0
  4  5  1  0
  5  6  1  0
  6  7  1  0
  7  8  1  0
  8  9  2  0
  8 10  1  0
 10 11  1  0
 11 12  2  0
 12 13  1  0
 13 14  1  0
 14 15  1  0
 15 16  2  0
 16 17  1  0
 17 18  2  0
 11 19  1  0
 14 19  2  0
 18 19  1  0
  7 20  1  0
  4 21  1  0
 20 21  1  0
M  END
