piperidine-amides-8361-covalent
     RDKit          3D

 24 26  0  0  0  0  0  0  0  0999 V2000
    7.1490   -3.2450   19.1430 C   0  0  0  0  0  0  0  0  0  0  0  0
    6.3840   -3.9750   20.1510 C   0  0  0  0  0  0  0  0  0  0  0  0
    5.2810   -4.4570   19.8430 O   0  0  0  0  0  0  0  0  0  0  0  0
    6.9280   -4.1690   21.4330 N   0  0  0  0  0  0  0  0  0  0  0  0
    6.3480   -5.2100   22.2200 C   0  0  0  0  0  0  0  0  0  0  0  0
    5.5020   -4.5540   23.2610 C   0  0  0  0  0  0  0  0  0  0  0  0
    6.4760   -3.7240   24.0690 C   0  0  0  0  0  0  0  0  0  0  0  0
    5.8550   -3.1590   25.3020 C   0  0  0  0  0  0  0  0  0  0  0  0
    4.6470   -2.9070   25.2580 O   0  0  0  0  0  0  0  0  0  0  0  0
    6.6920   -2.9580   26.3990 N   0  0  0  0  0  0  0  0  0  0  0  0
    6.5680   -3.7260   27.5870 C   0  0  0  0  0  0  0  0  0  0  0  0
    6.7530   -5.1060   27.4290 C   0  0  2  0  0  0  0  0  0  0  0  0
    5.6680   -5.8890   27.0810 C   0  0  0  0  0  0  0  0  0  0  0  0
    4.9400   -6.4920   28.1230 C   0  0  0  0  0  0  0  0  0  0  0  0
    3.7510   -7.3490   27.7560 C   0  0  0  0  0  0  0  0  0  0  0  0
    3.3670   -7.5460   26.2800 C   0  0  0  0  0  0  0  0  0  0  0  0
    4.1740   -6.8870   25.2670 C   0  0  0  0  0  0  0  0  0  0  0  0
    5.3230   -6.0640   25.7460 C   0  0  0  0  0  0  0  0  0  0  0  0
    7.5030   -5.6150   28.4730 C   0  0  0  0  0  0  0  0  0  0  0  0
    8.7400   -5.2160   27.9570 C   0  0  0  0  0  0  0  0  0  0  0  0
    8.9140   -5.5180   26.7430 O   0  0  0  0  0  0  0  0  0  0  0  0
    7.6520   -5.3690   26.2550 C   0  0  0  0  0  0  0  0  0  0  0  0
    7.0300   -2.6010   23.2680 C   0  0  0  0  0  0  0  0  0  0  0  0
    7.7240   -3.1430   22.0610 C   0  0  0  0  0  0  0  0  0  0  0  0
  1  2  1  0
  2  3  2  0
  2  4  1  0
  4  5  1  0
  5  6  1  0
  6  7  1  0
  7  8  1  0
  8  9  2  0
  8 10  1  0
 10 11  1  0
 12 11  1  1
 12 13  1  0
 13 14  2  0
 14 15  1  0
 15 16  2  0
 16 17  1  0
 13 18  1  0
 17 18  2  0
 12 19  1  0
 19 20  1  0
 20 21  1  0
 12 22  1  0
 21 22  1  0
  7 23  1  0
  4 24  1  0
 23 24  1  0
M  END
