piperidine-amides-1764-covalent
     RDKit          3D

 19 19  0  0  0  0  0  0  0  0999 V2000
    7.1530   -3.2580   19.1910 C   0  0  0  0  0  0  0  0  0  0  0  0
    6.3880   -4.0200   20.2210 C   0  0  0  0  0  0  0  0  0  0  0  0
    5.3140   -4.5690   19.8950 O   0  0  0  0  0  0  0  0  0  0  0  0
    6.9260   -4.1350   21.5180 N   0  0  0  0  0  0  0  0  0  0  0  0
    7.8380   -3.1600   22.0550 C   0  0  0  0  0  0  0  0  0  0  0  0
    7.1340   -2.5330   23.2400 C   0  0  0  0  0  0  0  0  0  0  0  0
    6.6000   -3.6570   24.0660 C   0  0  0  0  0  0  0  0  0  0  0  0
    5.8710   -3.1190   25.2230 C   0  0  0  0  0  0  0  0  0  0  0  0
    4.6360   -3.2020   25.2070 O   0  0  0  0  0  0  0  0  0  0  0  0
    6.6070   -2.5350   26.2600 N   0  0  0  0  0  0  0  0  0  0  0  0
    7.1150   -3.2030   27.3900 C   0  0  0  0  0  0  0  0  0  0  0  0
    6.4060   -4.1730   28.0360 C   0  0  1  0  0  0  0  0  0  0  0  0
    5.0180   -3.9340   27.6910 O   0  0  0  0  0  0  0  0  0  0  0  0
    6.6640   -5.4990   27.7670 C   0  0  0  0  0  0  0  0  0  0  0  0
    7.8050   -5.9430   28.3210 C   0  0  0  0  0  0  0  0  0  0  0  0
    9.0760   -5.8310   27.5810 C   0  0  0  0  0  0  0  0  0  0  0  0
    9.1720   -5.6630   26.0680 C   0  0  0  0  0  0  0  0  0  0  0  0
    5.7080   -4.6440   23.3540 C   0  0  0  0  0  0  0  0  0  0  0  0
    6.4930   -5.2020   22.3630 C   0  0  0  0  0  0  0  0  0  0  0  0
  1  2  1  0
  2  3  2  0
  2  4  1  0
  4  5  1  0
  5  6  1  0
  6  7  1  0
  7  8  1  0
  8  9  2  0
  8 10  1  0
 10 11  1  0
 11 12  1  0
 12 13  1  6
 12 14  1  0
 14 15  1  0
 15 16  1  0
 16 17  3  0
  7 18  1  0
  4 19  1  0
 18 19  1  0
M  END
