piperidine-amides-27053-covalent
     RDKit          3D

 25 27  0  0  0  0  0  0  0  0999 V2000
    6.9750   -3.3790   19.4780 C   0  0  0  0  0  0  0  0  0  0  0  0
    6.3660   -4.2780   20.4710 C   0  0  0  0  0  0  0  0  0  0  0  0
    5.4310   -4.9970   20.0190 O   0  0  0  0  0  0  0  0  0  0  0  0
    6.8160   -4.3480   21.8150 N   0  0  0  0  0  0  0  0  0  0  0  0
    6.6060   -5.5600   22.5990 C   0  0  0  0  0  0  0  0  0  0  0  0
    5.9540   -5.1840   23.9130 C   0  0  0  0  0  0  0  0  0  0  0  0
    5.7370   -3.7010   23.9630 C   0  0  0  0  0  0  0  0  0  0  0  0
    4.9620   -3.1650   25.1660 C   0  0  0  0  0  0  0  0  0  0  0  0
    4.0090   -2.4250   24.8780 O   0  0  0  0  0  0  0  0  0  0  0  0
    5.1450   -3.3870   26.5660 N   0  0  0  0  0  0  0  0  0  0  0  0
    6.2340   -4.1430   26.8900 C   0  0  0  0  0  0  0  0  0  0  0  0
    6.3160   -4.6770   28.3100 C   0  0  0  0  0  0  0  0  0  0  0  0
    5.3990   -4.3750   29.0830 O   0  0  0  0  0  0  0  0  0  0  0  0
    4.9540   -3.1150   28.7940 C   0  0  1  0  0  0  0  0  0  0  0  0
    5.1040   -2.1220   29.7420 C   0  0  0  0  0  0  0  0  0  0  0  0
    6.2450   -1.3560   29.8680 C   0  0  0  0  0  0  0  0  0  0  0  0
    6.3320   -0.3790   30.8250 C   0  0  0  0  0  0  0  0  0  0  0  0
    5.3060   -0.1130   31.7020 C   0  0  0  0  0  0  0  0  0  0  0  0
    5.4090    0.8460   32.6320 F   0  0  0  0  0  0  0  0  0  0  0  0
    4.0020   -0.8930   31.6600 C   0  0  0  0  0  0  0  0  0  0  0  0
    3.0510   -0.5380   32.5850 F   0  0  0  0  0  0  0  0  0  0  0  0
    3.9960   -1.9670   30.5530 C   0  0  0  0  0  0  0  0  0  0  0  0
    5.5980   -2.5800   27.6830 C   0  0  0  0  0  0  0  0  0  0  0  0
    7.0480   -2.9960   23.7250 C   0  0  0  0  0  0  0  0  0  0  0  0
    7.5930   -3.2710   22.4690 C   0  0  0  0  0  0  0  0  0  0  0  0
  1  2  1  0
  2  3  2  0
  2  4  1  0
  4  5  1  0
  5  6  1  0
  6  7  1  0
  7  8  1  0
  8  9  2  0
  8 10  1  0
 10 11  1  0
 11 12  1  0
 12 13  1  0
 13 14  1  0
 14 15  1  1
 15 16  2  0
 16 17  1  0
 17 18  2  0
 18 19  1  0
 18 20  1  0
 20 21  1  0
 15 22  1  0
 20 22  2  0
 10 23  1  0
 14 23  1  0
  7 24  1  0
  4 25  1  0
 24 25  1  0
M  END
