piperidine-amides-32273-covalent
     RDKit          3D

 28 29  0  0  0  0  0  0  0  0999 V2000
    7.1860   -3.2870   19.1890 C   0  0  0  0  0  0  0  0  0  0  0  0
    6.3630   -4.0220   20.1800 C   0  0  0  0  0  0  0  0  0  0  0  0
    5.2510   -4.4690   19.8530 O   0  0  0  0  0  0  0  0  0  0  0  0
    6.9120   -4.2520   21.4490 N   0  0  0  0  0  0  0  0  0  0  0  0
    6.5150   -5.3730   22.2480 C   0  0  0  0  0  0  0  0  0  0  0  0
    5.6530   -4.7830   23.3630 C   0  0  0  0  0  0  0  0  0  0  0  0
    6.4980   -3.8100   24.1260 C   0  0  0  0  0  0  0  0  0  0  0  0
    5.7630   -3.1990   25.2400 C   0  0  0  0  0  0  0  0  0  0  0  0
    4.9540   -2.3120   24.9580 O   0  0  0  0  0  0  0  0  0  0  0  0
    5.9810   -3.6450   26.5280 N   0  0  0  0  0  0  0  0  0  0  0  0
    5.2780   -4.7270   27.0830 C   0  0  0  0  0  0  0  0  0  0  0  0
    5.5080   -5.2080   28.3280 C   0  0  0  0  0  0  0  0  0  0  0  0
    5.7630   -4.2930   29.3110 C   0  0  0  0  0  0  0  0  0  0  0  0
    4.6780   -3.6780   29.8900 C   0  0  0  0  0  0  0  0  0  0  0  0
    4.4550   -2.3860   30.0760 O   0  0  0  0  0  0  0  0  0  0  0  0
    3.6790   -4.4710   30.3560 N   0  0  0  0  0  0  0  0  0  0  0  0
    2.6070   -3.8880   30.9310 C   0  0  0  0  0  0  0  0  0  0  0  0
    2.8140   -3.2810   32.3290 C   0  0  0  0  0  0  0  0  0  0  0  0
    1.9800   -4.1370   33.2900 C   0  0  0  0  0  0  0  0  0  0  0  0
    1.4750   -3.6670   34.4410 N   0  0  0  0  0  0  0  0  0  0  0  0
    2.4240   -3.4440   35.3500 C   0  0  0  0  0  0  0  0  0  0  0  0
    2.1030   -3.1700   36.7700 C   0  0  0  0  0  0  0  0  0  0  0  0
    0.4970   -2.6550   34.1130 C   0  0  0  0  0  0  0  0  0  0  0  0
   -0.6870   -3.1760   34.5650 C   0  0  0  0  0  0  0  0  0  0  0  0
    6.6740   -3.3280   28.8340 C   0  0  0  0  0  0  0  0  0  0  0  0
    6.3570   -2.6380   27.5320 C   0  0  0  0  0  0  0  0  0  0  0  0
    7.0180   -2.6750   23.2780 C   0  0  0  0  0  0  0  0  0  0  0  0
    7.6950   -3.1930   22.0760 C   0  0  0  0  0  0  0  0  0  0  0  0
  1  2  1  0
  2  3  2  0
  2  4  1  0
  4  5  1  0
  5  6  1  0
  6  7  1  0
  7  8  1  0
  8  9  2  0
  8 10  1  0
 10 11  1  0
 11 12  1  0
 12 13  1  0
 13 14  1  0
 14 15  2  0
 14 16  1  0
 16 17  1  0
 17 18  1  0
 18 19  1  0
 19 20  1  0
 20 21  1  0
 21 22  1  0
 20 23  1  0
 23 24  1  0
 13 25  1  0
 10 26  1  0
 25 26  1  0
  7 27  1  0
  4 28  1  0
 27 28  1  0
M  END
