piperidine-amides-811-covalent
     RDKit          3D

 25 27  0  0  0  0  0  0  0  0999 V2000
    7.1410   -3.3030   19.3760 C   0  0  0  0  0  0  0  0  0  0  0  0
    6.4190   -4.1020   20.3340 C   0  0  0  0  0  0  0  0  0  0  0  0
    5.3790   -4.7310   19.9530 O   0  0  0  0  0  0  0  0  0  0  0  0
    6.8560   -4.2360   21.6650 N   0  0  0  0  0  0  0  0  0  0  0  0
    6.6240   -5.5290   22.3300 C   0  0  0  0  0  0  0  0  0  0  0  0
    5.5870   -5.0310   23.3930 C   0  0  0  0  0  0  0  0  0  0  0  0
    6.3650   -4.0330   24.2180 C   0  0  0  0  0  0  0  0  0  0  0  0
    5.5310   -3.7730   25.5550 C   0  0  0  0  0  0  0  0  0  0  0  0
    4.7070   -4.6580   25.6760 O   0  0  0  0  0  0  0  0  0  0  0  0
    5.8840   -2.7130   26.1670 N   0  0  0  0  0  0  0  0  0  0  0  0
    6.1010   -1.5230   26.7960 C   0  0  0  0  0  0  0  0  0  0  0  0
    6.3000   -0.2380   26.4430 C   0  0  0  0  0  0  0  0  0  0  0  0
    6.4920    0.8200   27.3440 C   0  0  0  0  0  0  0  0  0  0  0  0
    6.5340    0.8010   28.8120 C   0  0  0  0  0  0  0  0  0  0  0  0
    6.3090   -0.6380   29.3130 C   0  0  0  0  0  0  0  0  0  0  0  0
    6.1060   -1.6360   28.3390 C   0  0  0  0  0  0  0  0  0  0  0  0
    5.8550   -2.8970   28.9480 N   0  0  0  0  0  0  0  0  0  0  0  0
    6.5850   -4.1070   28.6570 C   0  0  0  0  0  0  0  0  0  0  0  0
    4.5880   -2.9990   29.6670 C   0  0  0  0  0  0  0  0  0  0  0  0
    4.2280   -1.7160   30.4490 C   0  0  0  0  0  0  0  0  0  0  0  0
    2.9490   -1.3950   30.0790 C   0  0  0  0  0  0  0  0  0  0  0  0
    2.5020   -2.2860   29.1090 C   0  0  0  0  0  0  0  0  0  0  0  0
    3.4970   -3.2010   28.8540 C   0  0  0  0  0  0  0  0  0  0  0  0
    6.9040   -2.8380   23.4970 C   0  0  0  0  0  0  0  0  0  0  0  0
    7.6140   -3.2170   22.3480 C   0  0  0  0  0  0  0  0  0  0  0  0
  1  2  1  0
  2  3  2  0
  2  4  1  0
  4  5  1  0
  5  6  1  0
  6  7  1  0
  7  8  1  0
  8  9  2  0
  8 10  1  0
 10 11  1  0
 11 12  2  0
 12 13  1  0
 13 14  2  0
 14 15  1  0
 11 16  1  0
 15 16  2  0
 16 17  1  0
 17 18  1  0
 17 19  1  0
 19 20  1  0
 20 21  1  0
 21 22  1  0
 19 23  1  0
 22 23  1  0
  7 24  1  0
  4 25  1  0
 24 25  1  0
M  END
