piperidine-amides-12951-covalent
     RDKit          3D

 21 22  0  0  0  0  0  0  0  0999 V2000
    7.1510   -3.2810   19.2080 C   0  0  0  0  0  0  0  0  0  0  0  0
    6.3560   -4.0200   20.2130 C   0  0  0  0  0  0  0  0  0  0  0  0
    5.2560   -4.4700   19.8440 O   0  0  0  0  0  0  0  0  0  0  0  0
    6.8570   -4.2470   21.4950 N   0  0  0  0  0  0  0  0  0  0  0  0
    6.2590   -5.2490   22.3020 C   0  0  0  0  0  0  0  0  0  0  0  0
    5.6070   -4.7140   23.5060 C   0  0  0  0  0  0  0  0  0  0  0  0
    6.3020   -3.5510   24.1190 C   0  0  0  0  0  0  0  0  0  0  0  0
    5.4850   -2.9440   25.2170 C   0  0  0  0  0  0  0  0  0  0  0  0
    4.2690   -2.7720   25.0180 O   0  0  0  0  0  0  0  0  0  0  0  0
    6.0680   -2.5890   26.4560 N   0  0  0  0  0  0  0  0  0  0  0  0
    7.0120   -3.5150   27.1010 C   0  0  1  0  0  0  0  0  0  0  0  0
    6.3710   -4.3080   28.1970 C   0  0  0  0  0  0  0  0  0  0  0  0
    5.5850   -5.2760   27.9790 O   0  0  0  0  0  0  0  0  0  0  0  0
    7.5090   -4.3900   26.0440 C   0  0  2  0  0  0  0  0  0  0  0  0
    7.4070   -5.6920   26.2890 C   0  0  0  0  0  0  0  0  0  0  0  0
    8.1520   -6.1180   27.3190 C   0  0  0  0  0  0  0  0  0  0  0  0
    9.1870   -5.3420   27.4580 C   0  0  0  0  0  0  0  0  0  0  0  0
    9.6290   -4.9920   26.1590 O   0  0  0  0  0  0  0  0  0  0  0  0
    8.7310   -4.1270   25.5170 C   0  0  0  0  0  0  0  0  0  0  0  0
    6.8460   -2.5700   23.1520 C   0  0  0  0  0  0  0  0  0  0  0  0
    7.5930   -3.1940   22.1530 C   0  0  0  0  0  0  0  0  0  0  0  0
  1  2  1  0
  2  3  2  0
  2  4  1  0
  4  5  1  0
  5  6  1  0
  6  7  1  0
  7  8  1  0
  8  9  2  0
  8 10  1  0
 10 11  1  0
 11 12  1  1
 12 13  1  0
 11 14  1  0
 14 15  1  1
 15 16  1  0
 16 17  1  0
 17 18  1  0
 14 19  1  0
 18 19  1  0
  7 20  1  0
  4 21  1  0
 20 21  1  0
M  END
