piperidine-amides-34950-covalent
     RDKit          3D

 32 35  0  0  0  0  0  0  0  0999 V2000
    7.0230   -3.3660   19.4040 C   0  0  0  0  0  0  0  0  0  0  0  0
    6.3850   -4.2630   20.4020 C   0  0  0  0  0  0  0  0  0  0  0  0
    5.4160   -4.9120   20.0040 O   0  0  0  0  0  0  0  0  0  0  0  0
    6.9000   -4.3810   21.7060 N   0  0  0  0  0  0  0  0  0  0  0  0
    6.7330   -5.6100   22.4560 C   0  0  0  0  0  0  0  0  0  0  0  0
    6.1110   -5.3000   23.7920 C   0  0  0  0  0  0  0  0  0  0  0  0
    5.9760   -3.7880   23.8830 C   0  0  0  0  0  0  0  0  0  0  0  0
    5.3160   -3.3380   25.1370 C   0  0  0  0  0  0  0  0  0  0  0  0
    4.4450   -2.4730   25.0410 O   0  0  0  0  0  0  0  0  0  0  0  0
    5.5940   -3.8160   26.4260 N   0  0  0  0  0  0  0  0  0  0  0  0
    6.4350   -2.9860   27.1700 C   0  0  0  0  0  0  0  0  0  0  0  0
    6.7040   -3.8540   28.3660 C   0  0  0  0  0  0  0  0  0  0  0  0
    5.7280   -4.0070   29.2360 C   0  0  0  0  0  0  0  0  0  0  0  0
    5.1990   -2.8340   29.8300 N   0  0  0  0  0  0  0  0  0  0  0  0
    5.7850   -1.6230   29.8120 N   0  0  0  0  0  0  0  0  0  0  0  0
    4.8430   -0.8540   30.5250 C   0  0  0  0  0  0  0  0  0  0  0  0
    3.7730   -1.6160   30.9210 C   0  0  0  0  0  0  0  0  0  0  0  0
    3.9310   -2.9410   30.5030 C   0  0  0  0  0  0  0  0  0  0  0  0
    2.7280   -3.5840   31.0050 C   0  0  0  0  0  0  0  0  0  0  0  0
    1.9110   -2.7080   31.7060 N   0  0  0  0  0  0  0  0  0  0  0  0
    1.2400   -3.2520   32.8520 C   0  0  0  0  0  0  0  0  0  0  0  0
    0.4200   -4.3530   32.6850 O   0  0  0  0  0  0  0  0  0  0  0  0
    1.3790   -2.7140   34.1290 O   0  0  0  0  0  0  0  0  0  0  0  0
    2.5990   -2.3160   34.6920 C   0  0  0  0  0  0  0  0  0  0  0  0
    2.4770   -2.3350   36.1810 C   0  0  0  0  0  0  0  0  0  0  0  0
    3.8900   -2.9420   34.2740 C   0  0  0  0  0  0  0  0  0  0  0  0
    2.7240   -0.8070   34.7820 C   0  0  0  0  0  0  0  0  0  0  0  0
    2.5150   -1.3550   31.6710 C   0  0  0  0  0  0  0  0  0  0  0  0
    4.8630   -4.8370   28.5740 C   0  0  0  0  0  0  0  0  0  0  0  0
    4.4800   -4.3110   27.1940 C   0  0  0  0  0  0  0  0  0  0  0  0
    7.3130   -3.0780   23.6980 C   0  0  0  0  0  0  0  0  0  0  0  0
    7.6960   -3.2760   22.2390 C   0  0  0  0  0  0  0  0  0  0  0  0
  1  2  1  0
  2  3  2  0
  2  4  1  0
  4  5  1  0
  5  6  1  0
  6  7  1  0
  7  8  1  0
  8  9  2  0
  8 10  1  0
 10 11  1  0
 11 12  1  0
 12 13  1  0
 13 14  1  0
 14 15  1  0
 15 16  2  0
 16 17  1  0
 14 18  1  0
 17 18  2  0
 18 19  1  0
 19 20  1  0
 20 21  1  0
 21 22  2  0
 21 23  1  0
 24 23  1  0
 24 25  1  0
 24 26  1  0
 24 27  1  0
 17 28  1  0
 20 28  1  0
 13 29  1  0
 10 30  1  0
 29 30  1  0
  7 31  1  0
  4 32  1  0
 31 32  1  0
M  END
