piperidine-amides-25350-covalent
     RDKit          3D

 25 28  0  0  0  0  0  0  0  0999 V2000
    7.0220   -3.3530   19.3530 C   0  0  0  0  0  0  0  0  0  0  0  0
    6.3600   -4.2410   20.3400 C   0  0  0  0  0  0  0  0  0  0  0  0
    5.3440   -4.8190   19.9690 O   0  0  0  0  0  0  0  0  0  0  0  0
    6.9060   -4.4440   21.6110 N   0  0  0  0  0  0  0  0  0  0  0  0
    6.4880   -5.5490   22.4230 C   0  0  0  0  0  0  0  0  0  0  0  0
    5.6230   -5.0230   23.5360 C   0  0  0  0  0  0  0  0  0  0  0  0
    6.3880   -3.9500   24.3210 C   0  0  0  0  0  0  0  0  0  0  0  0
    5.5470   -3.4570   25.4590 C   0  0  0  0  0  0  0  0  0  0  0  0
    4.9070   -2.4160   25.2890 O   0  0  0  0  0  0  0  0  0  0  0  0
    5.4110   -4.1170   26.7200 N   0  0  0  0  0  0  0  0  0  0  0  0
    4.3050   -3.7610   27.5450 C   0  0  1  0  0  0  0  0  0  0  0  0
    4.4010   -4.7050   28.7260 C   0  0  0  0  0  0  0  0  0  0  0  0
    5.4850   -5.3430   29.2360 C   0  0  0  0  0  0  0  0  0  0  0  0
    5.3120   -6.1160   30.3380 C   0  0  0  0  0  0  0  0  0  0  0  0
    6.1430   -7.2700   30.6770 N   0  0  0  0  0  0  0  0  0  0  0  0
    5.6630   -7.8040   31.9000 C   0  0  0  0  0  0  0  0  0  0  0  0
    4.5330   -6.9580   32.2830 C   0  0  0  0  0  0  0  0  0  0  0  0
    4.3440   -5.9510   31.3240 N   0  0  0  0  0  0  0  0  0  0  0  0
    3.3110   -4.9530   31.4210 C   0  0  0  0  0  0  0  0  0  0  0  0
    6.7350   -5.0680   28.4910 C   0  0  0  0  0  0  0  0  0  0  0  0
    6.4060   -3.8880   27.6410 C   0  0  2  0  0  0  0  0  0  0  0  0
    5.7290   -2.8820   28.4920 C   0  0  0  0  0  0  0  0  0  0  0  0
    4.3090   -2.3620   28.1830 C   0  0  0  0  0  0  0  0  0  0  0  0
    6.7750   -2.8120   23.3970 C   0  0  0  0  0  0  0  0  0  0  0  0
    7.6320   -3.3930   22.3030 C   0  0  0  0  0  0  0  0  0  0  0  0
  1  2  1  0
  2  3  2  0
  2  4  1  0
  4  5  1  0
  5  6  1  0
  6  7  1  0
  7  8  1  0
  8  9  2  0
  8 10  1  0
 10 11  1  0
 11 12  1  1
 12 13  2  0
 13 14  1  0
 14 15  2  0
 15 16  1  0
 16 17  2  0
 14 18  1  0
 17 18  1  0
 18 19  1  0
 13 20  1  0
 10 21  1  0
 21 20  1  1
 21 22  1  0
 11 23  1  0
 22 23  1  0
  7 24  1  0
  4 25  1  0
 24 25  1  0
M  END
