piperidine-amides-24759-covalent
     RDKit          3D

 23 24  0  0  0  0  0  0  0  0999 V2000
    7.2220   -4.0840   19.6450 C   0  0  0  0  0  0  0  0  0  0  0  0
    6.0710   -4.0630   20.3960 C   0  0  0  0  0  0  0  0  0  0  0  0
    5.0160   -4.2140   19.7530 O   0  0  0  0  0  0  0  0  0  0  0  0
    6.2530   -4.0080   21.7610 N   0  0  0  0  0  0  0  0  0  0  0  0
    6.2170   -5.3190   22.4150 C   0  0  0  0  0  0  0  0  0  0  0  0
    6.0990   -5.0770   23.9140 C   0  0  0  0  0  0  0  0  0  0  0  0
    5.9650   -3.5870   24.0300 C   0  0  0  0  0  0  0  0  0  0  0  0
    5.4500   -3.1350   25.3180 C   0  0  0  0  0  0  0  0  0  0  0  0
    4.3520   -2.5470   25.2880 O   0  0  0  0  0  0  0  0  0  0  0  0
    6.0980   -3.3420   26.5470 N   0  0  0  0  0  0  0  0  0  0  0  0
    5.6020   -2.6360   27.6860 C   0  0  0  0  0  0  0  0  0  0  0  0
    5.5750   -3.5640   28.8640 C   0  0  1  0  0  0  0  0  0  0  0  0
    4.6810   -4.6010   28.9610 C   0  0  0  0  0  0  0  0  0  0  0  0
    3.8770   -4.8600   28.0170 O   0  0  0  0  0  0  0  0  0  0  0  0
    6.8500   -4.1810   28.8910 O   0  0  0  0  0  0  0  0  0  0  0  0
    7.1990   -4.6450   27.7120 C   0  0  2  0  0  0  0  0  0  0  0  0
    8.0680   -5.6880   27.7910 C   0  0  0  0  0  0  0  0  0  0  0  0
    8.3780   -6.2230   26.5650 F   0  0  0  0  0  0  0  0  0  0  0  0
    9.2140   -5.2760   28.3610 F   0  0  0  0  0  0  0  0  0  0  0  0
    7.5040   -6.6350   28.6020 F   0  0  0  0  0  0  0  0  0  0  0  0
    7.5130   -3.6240   26.8710 C   0  0  0  0  0  0  0  0  0  0  0  0
    7.3060   -2.9670   23.6760 C   0  0  0  0  0  0  0  0  0  0  0  0
    7.3830   -3.2000   22.2050 C   0  0  0  0  0  0  0  0  0  0  0  0
  1  2  1  0
  2  3  2  0
  2  4  1  0
  4  5  1  0
  5  6  1  0
  6  7  1  0
  7  8  1  0
  8  9  2  0
  8 10  1  0
 10 11  1  0
 11 12  1  0
 12 13  1  6
 13 14  1  0
 12 15  1  0
 15 16  1  0
 16 17  1  1
 17 18  1  0
 17 19  1  0
 17 20  1  0
 10 21  1  0
 16 21  1  0
  7 22  1  0
  4 23  1  0
 22 23  1  0
M  END
