piperidine-amides-32493-covalent
     RDKit          3D

 29 31  0  0  0  0  0  0  0  0999 V2000
    7.0580   -3.3320   19.3410 C   0  0  0  0  0  0  0  0  0  0  0  0
    6.3720   -4.1890   20.3480 C   0  0  0  0  0  0  0  0  0  0  0  0
    5.3760   -4.8390   19.9830 O   0  0  0  0  0  0  0  0  0  0  0  0
    6.8860   -4.2830   21.6680 N   0  0  0  0  0  0  0  0  0  0  0  0
    6.7020   -5.4880   22.4550 C   0  0  0  0  0  0  0  0  0  0  0  0
    6.2110   -5.0940   23.8600 C   0  0  0  0  0  0  0  0  0  0  0  0
    6.1950   -3.6050   23.9220 C   0  0  0  0  0  0  0  0  0  0  0  0
    5.6090   -2.9960   25.1420 C   0  0  0  0  0  0  0  0  0  0  0  0
    4.5110   -2.4610   24.9670 O   0  0  0  0  0  0  0  0  0  0  0  0
    6.2060   -3.0250   26.4120 N   0  0  0  0  0  0  0  0  0  0  0  0
    6.3400   -1.8280   27.1830 C   0  0  0  0  0  0  0  0  0  0  0  0
    6.9320   -1.7180   28.4370 C   0  0  0  0  0  0  0  0  0  0  0  0
    7.0380   -0.5170   29.1840 C   0  0  0  0  0  0  0  0  0  0  0  0
    6.5400    0.6800   28.7010 C   0  0  0  0  0  0  0  0  0  0  0  0
    6.6180    1.8480   29.3880 N   0  0  0  0  0  0  0  0  0  0  0  0
    7.1940    1.9180   30.4900 O   0  0  0  0  0  0  0  0  0  0  0  0
    5.9260    2.9380   28.9570 O   0  0  0  0  0  0  0  0  0  0  0  0
    5.9050    0.6380   27.3760 C   0  0  0  0  0  0  0  0  0  0  0  0
    5.8120   -0.6650   26.6060 C   0  0  0  0  0  0  0  0  0  0  0  0
    5.6790   -4.1830   27.1210 C   0  0  0  0  0  0  0  0  0  0  0  0
    6.3280   -4.6670   28.2400 C   0  0  0  0  0  0  0  0  0  0  0  0
    5.9780   -5.8260   29.0910 C   0  0  0  0  0  0  0  0  0  0  0  0
    4.7140   -6.3860   28.4710 C   0  0  0  0  0  0  0  0  0  0  0  0
    4.0730   -5.8940   27.3630 C   0  0  0  0  0  0  0  0  0  0  0  0
    2.9950   -6.4470   26.9150 O   0  0  0  0  0  0  0  0  0  0  0  0
    2.9590   -7.8550   26.9170 C   0  0  0  0  0  0  0  0  0  0  0  0
    4.5460   -4.8040   26.6870 C   0  0  0  0  0  0  0  0  0  0  0  0
    7.5640   -3.0530   23.6530 C   0  0  0  0  0  0  0  0  0  0  0  0
    7.7410   -3.1950   22.1880 C   0  0  0  0  0  0  0  0  0  0  0  0
  1  2  1  0
  2  3  2  0
  2  4  1  0
  4  5  1  0
  5  6  1  0
  6  7  1  0
  7  8  1  0
  8  9  2  0
  8 10  1  0
 10 11  1  0
 11 12  2  0
 12 13  1  0
 13 14  2  0
 14 15  1  0
 15 16  2  0
 15 17  1  0
 14 18  1  0
 11 19  1  0
 18 19  2  0
 10 20  1  0
 20 21  2  0
 21 22  1  0
 22 23  2  0
 23 24  1  0
 24 25  1  0
 25 26  1  0
 20 27  1  0
 24 27  2  0
  7 28  1  0
  4 29  1  0
 28 29  1  0
M  CHG  2  15   1  17  -1
M  END
