piperidine-amides-32582-covalent
     RDKit          3D

 24 25  0  0  0  0  0  0  0  0999 V2000
    7.1170   -3.3200   19.2520 C   0  0  0  0  0  0  0  0  0  0  0  0
    6.4020   -4.1430   20.2640 C   0  0  0  0  0  0  0  0  0  0  0  0
    5.3470   -4.7160   19.9450 O   0  0  0  0  0  0  0  0  0  0  0  0
    6.9780   -4.2940   21.5390 N   0  0  0  0  0  0  0  0  0  0  0  0
    7.8330   -3.2820   22.1160 C   0  0  0  0  0  0  0  0  0  0  0  0
    7.0060   -2.5970   23.1830 C   0  0  0  0  0  0  0  0  0  0  0  0
    6.4950   -3.6830   24.0600 C   0  0  0  0  0  0  0  0  0  0  0  0
    5.6340   -3.1300   25.1100 C   0  0  0  0  0  0  0  0  0  0  0  0
    4.5470   -2.6450   24.7790 O   0  0  0  0  0  0  0  0  0  0  0  0
    6.0920   -3.2040   26.4030 N   0  0  0  0  0  0  0  0  0  0  0  0
    6.4770   -4.4610   26.9250 C   0  0  0  0  0  0  0  0  0  0  0  0
    7.7450   -4.7690   27.2830 C   0  0  0  0  0  0  0  0  0  0  0  0
    8.0500   -4.3020   28.5190 C   0  0  0  0  0  0  0  0  0  0  0  0
    7.5910   -3.0170   28.7930 O   0  0  0  0  0  0  0  0  0  0  0  0
    8.3420   -1.8540   28.7710 C   0  0  0  0  0  0  0  0  0  0  0  0
    6.1110   -2.0060   27.2240 C   0  0  0  0  0  0  0  0  0  0  0  0
    6.0740   -0.7030   26.4040 C   0  0  0  0  0  0  0  0  0  0  0  0
    6.0910    0.5960   27.2190 C   0  0  0  0  0  0  0  0  0  0  0  0
    6.1410    0.5640   28.5970 C   0  0  0  0  0  0  0  0  0  0  0  0
    6.1650    2.2040   29.5800 Br  0  0  0  0  0  0  0  0  0  0  0  0
    6.1760   -0.7350   29.3130 C   0  0  0  0  0  0  0  0  0  0  0  0
    6.1540   -2.0110   28.6340 N   0  0  0  0  0  0  0  0  0  0  0  0
    5.7750   -4.8120   23.3830 C   0  0  0  0  0  0  0  0  0  0  0  0
    6.5600   -5.3590   22.4020 C   0  0  0  0  0  0  0  0  0  0  0  0
  1  2  1  0
  2  3  2  0
  2  4  1  0
  4  5  1  0
  5  6  1  0
  6  7  1  0
  7  8  1  0
  8  9  2  0
  8 10  1  0
 10 11  1  0
 11 12  1  0
 12 13  1  0
 13 14  1  0
 14 15  1  0
 10 16  1  0
 16 17  2  0
 17 18  1  0
 18 19  2  0
 19 20  1  0
 19 21  1  0
 16 22  1  0
 21 22  2  0
  7 23  1  0
  4 24  1  0
 23 24  1  0
M  END
