piperidine-amides-5096-covalent
     RDKit          3D

 22 23  0  0  0  0  0  0  0  0999 V2000
    7.1190   -3.2610   19.2010 C   0  0  0  0  0  0  0  0  0  0  0  0
    6.3710   -4.0190   20.2260 C   0  0  0  0  0  0  0  0  0  0  0  0
    5.2910   -4.5380   19.8780 O   0  0  0  0  0  0  0  0  0  0  0  0
    6.8950   -4.1740   21.5130 N   0  0  0  0  0  0  0  0  0  0  0  0
    6.4780   -5.2750   22.3110 C   0  0  0  0  0  0  0  0  0  0  0  0
    5.9860   -4.8960   23.6380 C   0  0  0  0  0  0  0  0  0  0  0  0
    6.5980   -3.6720   24.2220 C   0  0  0  0  0  0  0  0  0  0  0  0
    5.8520   -3.1850   25.4070 C   0  0  0  0  0  0  0  0  0  0  0  0
    4.6050   -3.1880   25.3570 O   0  0  0  0  0  0  0  0  0  0  0  0
    6.5150   -2.7250   26.5650 N   0  0  0  0  0  0  0  0  0  0  0  0
    6.2530   -3.2730   27.9170 C   0  0  0  0  0  0  0  0  0  0  0  0
    6.1460   -2.1890   28.9500 C   0  0  0  0  0  0  0  0  0  0  0  0
    7.3110   -1.4500   29.3950 C   0  0  0  0  0  0  0  0  0  0  0  0
    7.2490   -0.4600   30.3380 C   0  0  0  0  0  0  0  0  0  0  0  0
    6.0420   -0.1220   30.9100 C   0  0  0  0  0  0  0  0  0  0  0  0
    4.9080   -0.7890   30.5220 C   0  0  0  0  0  0  0  0  0  0  0  0
    3.7140   -0.4490   31.0930 C   0  0  0  0  0  0  0  0  0  0  0  0
    2.6160   -0.3670   30.2170 F   0  0  0  0  0  0  0  0  0  0  0  0
    3.9090    0.8540   31.4540 F   0  0  0  0  0  0  0  0  0  0  0  0
    4.9400   -1.8090   29.5590 C   0  0  0  0  0  0  0  0  0  0  0  0
    6.7650   -2.6040   23.1860 C   0  0  0  0  0  0  0  0  0  0  0  0
    7.6720   -3.1380   22.1570 C   0  0  0  0  0  0  0  0  0  0  0  0
  1  2  1  0
  2  3  2  0
  2  4  1  0
  4  5  1  0
  5  6  1  0
  6  7  1  0
  7  8  1  0
  8  9  2  0
  8 10  1  0
 10 11  1  0
 11 12  1  0
 12 13  2  0
 13 14  1  0
 14 15  2  0
 15 16  1  0
 16 17  1  0
 17 18  1  0
 17 19  1  0
 12 20  1  0
 16 20  2  0
  7 21  1  0
  4 22  1  0
 21 22  1  0
M  END
