piperidine-amides-18892-covalent
     RDKit          3D

 21 21  0  0  0  0  0  0  0  0999 V2000
    7.0740   -3.3260   19.2240 C   0  0  0  0  0  0  0  0  0  0  0  0
    6.3440   -4.0020   20.2730 C   0  0  0  0  0  0  0  0  0  0  0  0
    5.3080   -4.6520   19.9280 O   0  0  0  0  0  0  0  0  0  0  0  0
    6.7590   -4.0090   21.6210 N   0  0  0  0  0  0  0  0  0  0  0  0
    6.7460   -5.3400   22.2730 C   0  0  0  0  0  0  0  0  0  0  0  0
    5.8480   -5.0530   23.5340 C   0  0  0  0  0  0  0  0  0  0  0  0
    6.2230   -3.6720   24.0210 C   0  0  0  0  0  0  0  0  0  0  0  0
    5.4920   -3.4650   25.4210 C   0  0  0  0  0  0  0  0  0  0  0  0
    4.4320   -4.0650   25.4230 O   0  0  0  0  0  0  0  0  0  0  0  0
    6.1670   -2.7100   26.1860 N   0  0  0  0  0  0  0  0  0  0  0  0
    6.7940   -1.5620   26.5660 C   0  0  0  0  0  0  0  0  0  0  0  0
    6.1850   -3.3730   27.4460 C   0  0  0  0  0  0  0  0  0  0  0  0
    6.1150   -4.7990   27.5270 C   0  0  0  0  0  0  0  0  0  0  0  0
    6.7880   -5.3800   28.6160 O   0  0  0  0  0  0  0  0  0  0  0  0
    5.4060   -5.5440   26.5900 O   0  0  0  0  0  0  0  0  0  0  0  0
    4.1600   -6.0820   26.8740 C   0  0  0  0  0  0  0  0  0  0  0  0
    4.0240   -7.4210   27.6090 C   0  0  0  0  0  0  0  0  0  0  0  0
    3.6430   -7.2460   25.9990 C   0  0  0  0  0  0  0  0  0  0  0  0
    3.1350   -5.0910   27.3500 C   0  0  0  0  0  0  0  0  0  0  0  0
    7.5520   -3.2050   23.7450 C   0  0  0  0  0  0  0  0  0  0  0  0
    7.6040   -3.0280   22.1950 C   0  0  0  0  0  0  0  0  0  0  0  0
  1  2  1  0
  2  3  2  0
  2  4  1  0
  4  5  1  0
  5  6  1  0
  6  7  1  0
  7  8  1  0
  8  9  2  0
  8 10  1  0
 10 11  1  0
 10 12  1  0
 12 13  1  0
 13 14  2  0
 13 15  1  0
 16 15  1  0
 16 17  1  0
 16 18  1  0
 16 19  1  0
  7 20  1  0
  4 21  1  0
 20 21  1  0
M  END
