piperidine-amides-18815-covalent
     RDKit          3D

 21 21  0  0  0  0  0  0  0  0999 V2000
    7.0950   -3.3510   19.2470 C   0  0  0  0  0  0  0  0  0  0  0  0
    6.4090   -4.0840   20.2810 C   0  0  0  0  0  0  0  0  0  0  0  0
    5.3360   -4.6780   19.9470 O   0  0  0  0  0  0  0  0  0  0  0  0
    6.9090   -4.2210   21.5970 N   0  0  0  0  0  0  0  0  0  0  0  0
    6.5930   -5.4620   22.3200 C   0  0  0  0  0  0  0  0  0  0  0  0
    5.5630   -4.8590   23.3350 C   0  0  0  0  0  0  0  0  0  0  0  0
    6.3310   -3.8380   24.1510 C   0  0  0  0  0  0  0  0  0  0  0  0
    5.4850   -3.5290   25.4680 C   0  0  0  0  0  0  0  0  0  0  0  0
    4.3700   -4.0090   25.3550 O   0  0  0  0  0  0  0  0  0  0  0  0
    6.1610   -2.8430   26.2990 N   0  0  0  0  0  0  0  0  0  0  0  0
    6.8270   -1.7440   26.7500 C   0  0  0  0  0  0  0  0  0  0  0  0
    6.1280   -3.5460   27.5430 C   0  0  0  0  0  0  0  0  0  0  0  0
    5.7170   -4.9210   27.6520 C   0  0  0  0  0  0  0  0  0  0  0  0
    5.8600   -5.8670   26.5420 C   0  0  0  0  0  0  0  0  0  0  0  0
    6.4890   -5.4090   28.8450 C   0  0  0  0  0  0  0  0  0  0  0  0
    4.2650   -5.2130   27.7670 C   0  0  0  0  0  0  0  0  0  0  0  0
    3.5500   -4.3620   28.6270 N   0  0  0  0  0  0  0  0  0  0  0  0
    3.1940   -4.7640   29.9790 C   0  0  0  0  0  0  0  0  0  0  0  0
    3.0410   -3.1540   28.0280 C   0  0  0  0  0  0  0  0  0  0  0  0
    6.8390   -2.7040   23.3100 C   0  0  0  0  0  0  0  0  0  0  0  0
    7.6140   -3.1650   22.2740 C   0  0  0  0  0  0  0  0  0  0  0  0
  1  2  1  0
  2  3  2  0
  2  4  1  0
  4  5  1  0
  5  6  1  0
  6  7  1  0
  7  8  1  0
  8  9  2  0
  8 10  1  0
 10 11  1  0
 10 12  1  0
 13 12  1  0
 13 14  1  0
 13 15  1  0
 13 16  1  0
 16 17  1  0
 17 18  1  0
 17 19  1  0
  7 20  1  0
  4 21  1  0
 20 21  1  0
M  END
