piperidine-amides-26892-covalent
     RDKit          3D

 21 23  0  0  0  0  0  0  0  0999 V2000
    7.1230   -3.3240   19.3490 C   0  0  0  0  0  0  0  0  0  0  0  0
    6.4350   -4.1570   20.3300 C   0  0  0  0  0  0  0  0  0  0  0  0
    5.3550   -4.6830   19.9460 O   0  0  0  0  0  0  0  0  0  0  0  0
    6.9830   -4.4060   21.5970 N   0  0  0  0  0  0  0  0  0  0  0  0
    6.3490   -5.3720   22.4270 C   0  0  0  0  0  0  0  0  0  0  0  0
    5.3420   -4.5770   23.2060 C   0  0  0  0  0  0  0  0  0  0  0  0
    6.0010   -3.6530   24.1980 C   0  0  0  0  0  0  0  0  0  0  0  0
    5.9280   -4.4420   25.4420 C   0  0  0  0  0  0  0  0  0  0  0  0
    5.9720   -5.6500   25.2900 O   0  0  0  0  0  0  0  0  0  0  0  0
    5.7290   -4.0400   26.7700 N   0  0  0  0  0  0  0  0  0  0  0  0
    4.6320   -4.6530   27.4090 C   0  0  0  0  0  0  0  0  0  0  0  0
    4.6560   -3.8580   28.5940 C   0  0  0  0  0  0  0  0  0  0  0  0
    5.6830   -3.0070   28.5900 C   0  0  0  0  0  0  0  0  0  0  0  0
    5.8850   -2.0870   29.7620 C   0  0  0  0  0  0  0  0  0  0  0  0
    6.9590   -1.1320   29.9100 C   0  0  0  0  0  0  0  0  0  0  0  0
    7.3180    0.0970   31.3180 Br  0  0  0  0  0  0  0  0  0  0  0  0
    7.6170   -1.3290   28.8320 C   0  0  0  0  0  0  0  0  0  0  0  0
    6.8200   -2.2110   28.4080 C   0  0  0  0  0  0  0  0  0  0  0  0
    6.5680   -3.0400   27.3670 C   0  0  0  0  0  0  0  0  0  0  0  0
    7.4110   -3.3450   23.7740 C   0  0  0  0  0  0  0  0  0  0  0  0
    7.5930   -3.2480   22.2630 C   0  0  0  0  0  0  0  0  0  0  0  0
  1  2  1  0
  2  3  2  0
  2  4  1  0
  4  5  1  0
  5  6  1  0
  6  7  1  0
  7  8  1  0
  8  9  2  0
  8 10  1  0
 10 11  1  0
 11 12  1  0
 12 13  1  0
 13 14  1  0
 14 15  2  0
 15 16  1  0
 15 17  1  0
 17 18  2  0
 10 19  1  0
 13 19  2  0
 18 19  1  0
  7 20  1  0
  4 21  1  0
 20 21  1  0
M  END
