piperidine-amides-67-covalent
     RDKit          3D

 20 22  0  0  0  0  0  0  0  0999 V2000
    7.0770   -3.3640   19.2710 C   0  0  0  0  0  0  0  0  0  0  0  0
    6.3800   -4.1050   20.2920 C   0  0  0  0  0  0  0  0  0  0  0  0
    5.3190   -4.7090   19.9530 O   0  0  0  0  0  0  0  0  0  0  0  0
    6.8670   -4.2370   21.6120 N   0  0  0  0  0  0  0  0  0  0  0  0
    7.5050   -3.0350   22.2150 C   0  0  0  0  0  0  0  0  0  0  0  0
    7.5260   -3.3900   23.7560 C   0  0  0  0  0  0  0  0  0  0  0  0
    6.1230   -3.8190   24.1110 C   0  0  0  0  0  0  0  0  0  0  0  0
    5.9010   -3.8190   25.6850 C   0  0  0  0  0  0  0  0  0  0  0  0
    5.7440   -4.9580   26.0600 O   0  0  0  0  0  0  0  0  0  0  0  0
    5.9100   -2.6510   26.1690 N   0  0  0  0  0  0  0  0  0  0  0  0
    5.8300   -1.4440   26.7850 C   0  0  0  0  0  0  0  0  0  0  0  0
    5.8570   -0.1240   26.5260 C   0  0  0  0  0  0  0  0  0  0  0  0
    5.9410    0.5910   27.7370 C   0  0  0  0  0  0  0  0  0  0  0  0
    6.6680    0.1870   29.0740 C   0  0  0  0  0  0  0  0  0  0  0  0
    6.5380    1.2750   30.2670 S   0  0  0  0  0  0  0  0  0  0  0  0
    5.8830    1.3450   28.6530 C   0  0  0  0  0  0  0  0  0  0  0  0
    6.6540   -0.0910   28.6490 C   0  0  0  0  0  0  0  0  0  0  0  0
    6.9270   -1.1940   27.8000 C   0  0  0  0  0  0  0  0  0  0  0  0
    5.5700   -4.9420   23.4010 C   0  0  0  0  0  0  0  0  0  0  0  0
    6.6820   -5.3740   22.4100 C   0  0  0  0  0  0  0  0  0  0  0  0
  1  2  1  0
  2  3  2  0
  2  4  1  0
  4  5  1  0
  5  6  1  0
  6  7  1  0
  7  8  1  0
  8  9  2  0
  8 10  1  0
 10 11  1  0
 11 12  1  0
 12 13  1  0
 13 14  2  0
 14 15  1  0
 15 16  1  0
 13 17  1  0
 16 17  2  0
 11 18  1  0
 17 18  1  0
  7 19  1  0
  4 20  1  0
 19 20  1  0
M  END
