piperidine-amides-856-covalent
     RDKit          3D

 24 25  0  0  0  0  0  0  0  0999 V2000
    7.1130   -3.3560   19.2500 C   0  0  0  0  0  0  0  0  0  0  0  0
    6.4020   -4.0850   20.2730 C   0  0  0  0  0  0  0  0  0  0  0  0
    5.3130   -4.6410   19.9300 O   0  0  0  0  0  0  0  0  0  0  0  0
    6.8950   -4.2570   21.5890 N   0  0  0  0  0  0  0  0  0  0  0  0
    7.8080   -3.2380   22.1540 C   0  0  0  0  0  0  0  0  0  0  0  0
    6.8120   -2.5610   23.1530 C   0  0  0  0  0  0  0  0  0  0  0  0
    6.5070   -3.6330   24.1650 C   0  0  0  0  0  0  0  0  0  0  0  0
    5.6550   -3.0350   25.3650 C   0  0  0  0  0  0  0  0  0  0  0  0
    4.9850   -2.0880   24.9860 O   0  0  0  0  0  0  0  0  0  0  0  0
    5.8690   -3.6990   26.4280 N   0  0  0  0  0  0  0  0  0  0  0  0
    5.9720   -4.3890   27.5930 C   0  0  0  0  0  0  0  0  0  0  0  0
    6.0110   -5.6530   28.1100 C   0  0  0  0  0  0  0  0  0  0  0  0
    6.8930   -6.4390   27.5030 F   0  0  0  0  0  0  0  0  0  0  0  0
    6.2820   -5.5290   29.4310 F   0  0  0  0  0  0  0  0  0  0  0  0
    4.7850   -6.3490   27.9500 C   0  0  0  0  0  0  0  0  0  0  0  0
    4.1880   -6.2370   26.5630 C   0  0  0  0  0  0  0  0  0  0  0  0
    2.8450   -7.0060   26.4000 C   0  0  0  0  0  0  0  0  0  0  0  0
    2.4710   -7.6330   27.5610 C   0  0  0  0  0  0  0  0  0  0  0  0
    1.4360   -8.4390   28.0630 C   0  0  0  0  0  0  0  0  0  0  0  0
    3.0310   -7.7520   28.9040 C   0  0  0  0  0  0  0  0  0  0  0  0
    4.3600   -7.0580   29.2420 C   0  0  0  0  0  0  0  0  0  0  0  0
    5.2030   -7.1420   30.9600 Br  0  0  0  0  0  0  0  0  0  0  0  0
    5.8030   -4.8480   23.5150 C   0  0  0  0  0  0  0  0  0  0  0  0
    6.4920   -5.3550   22.4390 C   0  0  0  0  0  0  0  0  0  0  0  0
  1  2  1  0
  2  3  2  0
  2  4  1  0
  4  5  1  0
  5  6  1  0
  6  7  1  0
  7  8  1  0
  8  9  2  0
  8 10  1  0
 10 11  1  0
 11 12  1  0
 12 13  1  0
 12 14  1  0
 12 15  1  0
 15 16  2  0
 16 17  1  0
 17 18  2  0
 18 19  1  0
 18 20  1  0
 15 21  1  0
 20 21  2  0
 21 22  1  0
  7 23  1  0
  4 24  1  0
 23 24  1  0
M  END
