piperidine-amides-11307-covalent
     RDKit          3D

 19 20  0  0  0  0  0  0  0  0999 V2000
    7.0690   -3.3050   19.2730 C   0  0  0  0  0  0  0  0  0  0  0  0
    6.3660   -4.0850   20.2940 C   0  0  0  0  0  0  0  0  0  0  0  0
    5.3730   -4.7520   19.9590 O   0  0  0  0  0  0  0  0  0  0  0  0
    6.8180   -4.1230   21.6280 N   0  0  0  0  0  0  0  0  0  0  0  0
    7.6960   -3.0930   22.1410 C   0  0  0  0  0  0  0  0  0  0  0  0
    7.4000   -2.9840   23.6100 C   0  0  0  0  0  0  0  0  0  0  0  0
    6.0780   -3.6060   23.9290 C   0  0  0  0  0  0  0  0  0  0  0  0
    5.6050   -3.3500   25.3200 C   0  0  0  0  0  0  0  0  0  0  0  0
    4.3730   -3.1680   25.5380 O   0  0  0  0  0  0  0  0  0  0  0  0
    6.4680   -3.2820   26.4370 N   0  0  0  0  0  0  0  0  0  0  0  0
    5.9890   -3.5960   27.8120 C   0  0  0  0  0  0  0  0  0  0  0  0
    6.2920   -5.0070   28.1710 C   0  0  0  0  0  0  0  0  0  0  0  0
    5.2770   -5.8430   28.8330 C   0  0  0  0  0  0  0  0  0  0  0  0
    3.8210   -5.6000   28.6520 N   0  0  0  0  0  0  0  0  0  0  0  0
    3.0950   -6.6310   29.4580 C   0  0  0  0  0  0  0  0  0  0  0  0
    3.9210   -7.6130   30.2210 C   0  0  0  0  0  0  0  0  0  0  0  0
    5.6360   -7.2030   29.8930 S   0  0  0  0  0  0  0  0  0  0  0  0
    6.1390   -5.0720   23.6590 C   0  0  0  0  0  0  0  0  0  0  0  0
    6.5160   -5.3230   22.3580 C   0  0  0  0  0  0  0  0  0  0  0  0
  1  2  1  0
  2  3  2  0
  2  4  1  0
  4  5  1  0
  5  6  1  0
  6  7  1  0
  7  8  1  0
  8  9  2  0
  8 10  1  0
 10 11  1  0
 11 12  1  0
 12 13  1  0
 13 14  2  0
 14 15  1  0
 15 16  2  0
 13 17  1  0
 16 17  1  0
  7 18  1  0
  4 19  1  0
 18 19  1  0
M  END
