piperidine-amides-29658-covalent
     RDKit          3D

 22 23  0  0  0  0  0  0  0  0999 V2000
    7.1090   -3.2740   19.2570 C   0  0  0  0  0  0  0  0  0  0  0  0
    6.3340   -4.0540   20.2160 C   0  0  0  0  0  0  0  0  0  0  0  0
    5.2650   -4.5580   19.8830 O   0  0  0  0  0  0  0  0  0  0  0  0
    6.8440   -4.2900   21.5310 N   0  0  0  0  0  0  0  0  0  0  0  0
    6.4340   -5.4630   22.2630 C   0  0  0  0  0  0  0  0  0  0  0  0
    5.6350   -5.1090   23.5070 C   0  0  0  0  0  0  0  0  0  0  0  0
    5.8820   -3.6550   23.8830 C   0  0  0  0  0  0  0  0  0  0  0  0
    5.4530   -3.3940   25.2830 C   0  0  0  0  0  0  0  0  0  0  0  0
    4.2510   -3.3580   25.5980 O   0  0  0  0  0  0  0  0  0  0  0  0
    6.4180   -3.1860   26.2900 N   0  0  0  0  0  0  0  0  0  0  0  0
    6.6170   -4.2780   27.2230 C   0  0  0  0  0  0  0  0  0  0  0  0
    6.6870   -1.8090   26.6530 C   0  0  0  0  0  0  0  0  0  0  0  0
    5.6330   -0.9400   26.8040 C   0  0  0  0  0  0  0  0  0  0  0  0
    4.8200   -0.6340   25.6690 C   0  0  0  0  0  0  0  0  0  0  0  0
    3.7410    0.2390   25.7610 C   0  0  0  0  0  0  0  0  0  0  0  0
    3.4980    0.8080   27.0540 C   0  0  0  0  0  0  0  0  0  0  0  0
    2.4330    1.6630   27.1150 F   0  0  0  0  0  0  0  0  0  0  0  0
    4.2740    0.5090   28.1110 C   0  0  0  0  0  0  0  0  0  0  0  0
    5.3370   -0.3480   28.0330 C   0  0  0  0  0  0  0  0  0  0  0  0
    6.3590   -0.6880   29.6020 Br  0  0  0  0  0  0  0  0  0  0  0  0
    7.2270   -3.1660   23.5760 C   0  0  0  0  0  0  0  0  0  0  0  0
    7.5630   -3.2550   22.1740 C   0  0  0  0  0  0  0  0  0  0  0  0
  1  2  1  0
  2  3  2  0
  2  4  1  0
  4  5  1  0
  5  6  1  0
  6  7  1  0
  7  8  1  0
  8  9  2  0
  8 10  1  0
 10 11  1  0
 10 12  1  0
 12 13  1  0
 13 14  2  0
 14 15  1  0
 15 16  2  0
 16 17  1  0
 16 18  1  0
 13 19  1  0
 18 19  2  0
 19 20  1  0
  7 21  1  0
  4 22  1  0
 21 22  1  0
M  END
