piperidine-amides-626-covalent
     RDKit          3D

 26 28  0  0  0  0  0  0  0  0999 V2000
    7.0660   -3.3590   19.2730 C   0  0  0  0  0  0  0  0  0  0  0  0
    6.3830   -4.0990   20.3050 C   0  0  0  0  0  0  0  0  0  0  0  0
    5.3400   -4.7410   19.9620 O   0  0  0  0  0  0  0  0  0  0  0  0
    6.8490   -4.1930   21.6350 N   0  0  0  0  0  0  0  0  0  0  0  0
    7.5850   -3.0310   22.2090 C   0  0  0  0  0  0  0  0  0  0  0  0
    7.6280   -3.3800   23.7530 C   0  0  0  0  0  0  0  0  0  0  0  0
    6.2230   -3.8140   24.1010 C   0  0  0  0  0  0  0  0  0  0  0  0
    5.8580   -3.7760   25.6450 C   0  0  0  0  0  0  0  0  0  0  0  0
    5.3790   -4.8430   25.9690 O   0  0  0  0  0  0  0  0  0  0  0  0
    6.1140   -2.6560   26.1640 N   0  0  0  0  0  0  0  0  0  0  0  0
    6.1850   -1.4520   26.7770 C   0  0  0  0  0  0  0  0  0  0  0  0
    5.8720   -0.1290   26.5630 C   0  0  0  0  0  0  0  0  0  0  0  0
    6.0560    0.9730   27.4430 C   0  0  0  0  0  0  0  0  0  0  0  0
    6.6260    0.9900   28.8060 C   0  0  0  0  0  0  0  0  0  0  0  0
    6.9870   -0.4630   29.0750 C   0  0  0  0  0  0  0  0  0  0  0  0
    7.5600   -0.7410   30.3320 O   0  0  0  0  0  0  0  0  0  0  0  0
    7.4590    0.1870   31.3910 C   0  0  0  0  0  0  0  0  0  0  0  0
    8.6370    0.9470   31.5010 C   0  0  0  0  0  0  0  0  0  0  0  0
    8.8910    1.3920   32.7370 N   0  0  0  0  0  0  0  0  0  0  0  0
    9.1800    0.6930   33.9660 C   0  0  0  0  0  0  0  0  0  0  0  0
    9.3580    1.8650   34.9580 C   0  0  0  0  0  0  0  0  0  0  0  0
    9.1650    3.0040   34.2310 C   0  0  0  0  0  0  0  0  0  0  0  0
    8.8800    2.7280   32.8800 N   0  0  0  0  0  0  0  0  0  0  0  0
    6.7750   -1.4620   28.1700 C   0  0  0  0  0  0  0  0  0  0  0  0
    5.8160   -5.1180   23.4420 C   0  0  0  0  0  0  0  0  0  0  0  0
    6.6580   -5.3920   22.4030 C   0  0  0  0  0  0  0  0  0  0  0  0
  1  2  1  0
  2  3  2  0
  2  4  1  0
  4  5  1  0
  5  6  1  0
  6  7  1  0
  7  8  1  0
  8  9  2  0
  8 10  1  0
 10 11  1  0
 11 12  2  0
 12 13  1  0
 13 14  2  0
 14 15  1  0
 15 16  1  0
 16 17  1  0
 17 18  1  0
 18 19  1  0
 19 20  1  0
 20 21  2  0
 21 22  1  0
 19 23  1  0
 22 23  2  0
 11 24  1  0
 15 24  2  0
  7 25  1  0
  4 26  1  0
 25 26  1  0
M  END
