piperidine-amides-3273-covalent
     RDKit          3D

 22 23  0  0  0  0  0  0  0  0999 V2000
    7.0700   -3.3740   19.3260 C   0  0  0  0  0  0  0  0  0  0  0  0
    6.3490   -4.1650   20.3100 C   0  0  0  0  0  0  0  0  0  0  0  0
    5.3480   -4.7900   19.9720 O   0  0  0  0  0  0  0  0  0  0  0  0
    6.8500   -4.2570   21.6510 N   0  0  0  0  0  0  0  0  0  0  0  0
    7.6620   -3.1770   22.1760 C   0  0  0  0  0  0  0  0  0  0  0  0
    7.4530   -2.9720   23.6540 C   0  0  0  0  0  0  0  0  0  0  0  0
    6.1430   -3.6340   24.0300 C   0  0  0  0  0  0  0  0  0  0  0  0
    5.7230   -3.2550   25.4100 C   0  0  0  0  0  0  0  0  0  0  0  0
    4.5910   -3.5330   25.8470 O   0  0  0  0  0  0  0  0  0  0  0  0
    6.6250   -2.5430   26.2390 N   0  0  0  0  0  0  0  0  0  0  0  0
    6.0930   -1.4920   27.0850 C   0  0  1  0  0  0  0  0  0  0  0  0
    7.0490   -1.4040   28.2340 C   0  0  0  0  0  0  0  0  0  0  0  0
    6.7750   -0.4570   29.1620 C   0  0  0  0  0  0  0  0  0  0  0  0
    6.2260    0.7520   28.7370 C   0  0  0  0  0  0  0  0  0  0  0  0
    5.5720    0.8390   27.5060 C   0  0  2  0  0  0  0  0  0  0  0  0
    4.2260    1.3960   27.5890 C   0  0  0  0  0  0  0  0  0  0  0  0
    3.6290    1.7350   26.5130 O   0  0  0  0  0  0  0  0  0  0  0  0
    3.5980    1.5620   28.8040 O   0  0  0  0  0  0  0  0  0  0  0  0
    2.4460    0.9060   29.2410 C   0  0  0  0  0  0  0  0  0  0  0  0
    5.7580   -0.2350   26.6360 C   0  0  0  0  0  0  0  0  0  0  0  0
    6.0730   -5.0880   23.7550 C   0  0  0  0  0  0  0  0  0  0  0  0
    6.5550   -5.4180   22.4140 C   0  0  0  0  0  0  0  0  0  0  0  0
  1  2  1  0
  2  3  2  0
  2  4  1  0
  4  5  1  0
  5  6  1  0
  6  7  1  0
  7  8  1  0
  8  9  2  0
  8 10  1  0
 11 10  1  6
 11 12  1  0
 12 13  1  0
 13 14  1  0
 14 15  1  0
 15 16  1  1
 16 17  2  0
 16 18  1  0
 18 19  1  0
 11 20  1  0
 15 20  1  0
  7 21  1  0
  4 22  1  0
 21 22  1  0
M  END
