piperidine-amides-1980-covalent
     RDKit          3D

 25 27  0  0  0  0  0  0  0  0999 V2000
    7.0780   -3.2670   19.1750 C   0  0  0  0  0  0  0  0  0  0  0  0
    6.3300   -4.0260   20.2120 C   0  0  0  0  0  0  0  0  0  0  0  0
    5.2690   -4.5390   19.8730 O   0  0  0  0  0  0  0  0  0  0  0  0
    6.8550   -4.1730   21.4940 N   0  0  0  0  0  0  0  0  0  0  0  0
    7.6520   -3.1400   22.1110 C   0  0  0  0  0  0  0  0  0  0  0  0
    6.9200   -2.6070   23.3060 C   0  0  0  0  0  0  0  0  0  0  0  0
    6.5210   -3.7980   24.1710 C   0  0  0  0  0  0  0  0  0  0  0  0
    5.7580   -3.2950   25.3340 C   0  0  0  0  0  0  0  0  0  0  0  0
    4.5260   -3.1930   25.2460 O   0  0  0  0  0  0  0  0  0  0  0  0
    6.4060   -2.9480   26.5370 N   0  0  0  0  0  0  0  0  0  0  0  0
    6.3880   -1.5630   26.9640 C   0  0  0  0  0  0  0  0  0  0  0  0
    5.3050   -1.4340   28.0230 C   0  0  2  0  0  0  0  0  0  0  0  0
    4.0040   -1.2050   27.6920 C   0  0  0  0  0  0  0  0  0  0  0  0
    3.6500   -0.0230   27.8090 O   0  0  0  0  0  0  0  0  0  0  0  0
    4.7530    0.6260   28.3270 C   0  0  0  0  0  0  0  0  0  0  0  0
    5.5990   -0.2650   28.9660 C   0  0  1  0  0  0  0  0  0  0  0  0
    5.1660   -0.4690   30.1980 N   0  0  0  0  0  0  0  0  0  0  0  0
    5.7800    0.1820   31.3410 C   0  0  0  0  0  0  0  0  0  0  0  0
    5.0530   -0.2680   32.5250 C   0  0  0  0  0  0  0  0  0  0  0  0
    5.5870    0.3320   33.7990 C   0  0  0  0  0  0  0  0  0  0  0  0
    6.0460    1.6120   33.5010 O   0  0  0  0  0  0  0  0  0  0  0  0
    4.0940   -1.1170   32.0910 N   0  0  0  0  0  0  0  0  0  0  0  0
    4.1920   -1.2080   30.7300 N   0  0  0  0  0  0  0  0  0  0  0  0
    5.8270   -4.8870   23.4580 C   0  0  0  0  0  0  0  0  0  0  0  0
    6.5280   -5.3590   22.2330 C   0  0  0  0  0  0  0  0  0  0  0  0
  1  2  1  0
  2  3  2  0
  2  4  1  0
  4  5  1  0
  5  6  1  0
  6  7  1  0
  7  8  1  0
  8  9  2  0
  8 10  1  0
 10 11  1  0
 12 11  1  6
 12 13  1  0
 13 14  1  0
 14 15  1  0
 12 16  1  0
 15 16  1  0
 16 17  1  1
 17 18  1  0
 18 19  2  0
 19 20  1  0
 20 21  1  0
 19 22  1  0
 17 23  1  0
 22 23  2  0
  7 24  1  0
  4 25  1  0
 24 25  1  0
M  END
