piperidine-amides-27209-covalent
     RDKit          3D

 21 22  0  0  0  0  0  0  0  0999 V2000
    7.0380   -3.3540   19.3630 C   0  0  0  0  0  0  0  0  0  0  0  0
    6.3990   -4.2180   20.3620 C   0  0  0  0  0  0  0  0  0  0  0  0
    5.3630   -4.8240   19.9760 O   0  0  0  0  0  0  0  0  0  0  0  0
    6.9450   -4.3990   21.6450 N   0  0  0  0  0  0  0  0  0  0  0  0
    6.6130   -5.5320   22.4570 C   0  0  0  0  0  0  0  0  0  0  0  0
    5.7770   -5.0260   23.6000 C   0  0  0  0  0  0  0  0  0  0  0  0
    6.4170   -3.9080   24.3950 C   0  0  0  0  0  0  0  0  0  0  0  0
    5.3370   -3.2780   25.2070 C   0  0  0  0  0  0  0  0  0  0  0  0
    4.3320   -2.8620   24.6060 O   0  0  0  0  0  0  0  0  0  0  0  0
    5.3740   -3.1190   26.6030 N   0  0  0  0  0  0  0  0  0  0  0  0
    5.8940   -4.2740   27.3520 C   0  0  0  0  0  0  0  0  0  0  0  0
    5.2000   -5.5900   27.0730 C   0  0  0  0  0  0  0  0  0  0  0  0
    5.5660   -1.8040   27.2090 C   0  0  0  0  0  0  0  0  0  0  0  0
    5.7480   -1.6820   28.5980 C   0  0  0  0  0  0  0  0  0  0  0  0
    5.9740   -0.4530   29.2340 C   0  0  0  0  0  0  0  0  0  0  0  0
    6.0220    0.7370   28.5280 C   0  0  0  0  0  0  0  0  0  0  0  0
    6.3230    2.4460   29.3530 Br  0  0  0  0  0  0  0  0  0  0  0  0
    5.8460    0.6950   27.1760 C   0  0  0  0  0  0  0  0  0  0  0  0
    5.6120   -0.6210   26.5000 C   0  0  0  0  0  0  0  0  0  0  0  0
    7.0050   -2.8100   23.5490 C   0  0  0  0  0  0  0  0  0  0  0  0
    7.6380   -3.2620   22.2470 C   0  0  0  0  0  0  0  0  0  0  0  0
  1  2  1  0
  2  3  2  0
  2  4  1  0
  4  5  1  0
  5  6  1  0
  6  7  1  0
  7  8  1  0
  8  9  2  0
  8 10  1  0
 10 11  1  0
 11 12  1  0
 10 13  1  0
 13 14  2  0
 14 15  1  0
 15 16  2  0
 16 17  1  0
 16 18  1  0
 13 19  1  0
 18 19  2  0
  7 20  1  0
  4 21  1  0
 20 21  1  0
M  END
