piperidine-amides-14677-covalent
     RDKit          3D

 23 24  0  0  0  0  0  0  0  0999 V2000
    7.1040   -3.2940   19.2390 C   0  0  0  0  0  0  0  0  0  0  0  0
    6.4020   -4.0850   20.2440 C   0  0  0  0  0  0  0  0  0  0  0  0
    5.3300   -4.6200   19.9200 O   0  0  0  0  0  0  0  0  0  0  0  0
    6.9730   -4.2790   21.5300 N   0  0  0  0  0  0  0  0  0  0  0  0
    7.6590   -3.1840   22.1450 C   0  0  0  0  0  0  0  0  0  0  0  0
    6.8100   -2.6630   23.2600 C   0  0  0  0  0  0  0  0  0  0  0  0
    6.6190   -3.7950   24.2420 C   0  0  0  0  0  0  0  0  0  0  0  0
    5.8150   -3.2860   25.3950 C   0  0  0  0  0  0  0  0  0  0  0  0
    4.6660   -2.9390   25.1270 O   0  0  0  0  0  0  0  0  0  0  0  0
    6.3990   -3.2380   26.6590 N   0  0  0  0  0  0  0  0  0  0  0  0
    5.7560   -3.8310   27.7830 C   0  0  1  0  0  0  0  0  0  0  0  0
    6.4680   -4.7850   28.5240 C   0  0  0  0  0  0  0  0  0  0  0  0
    5.5050   -2.7210   28.7300 C   0  0  0  0  0  0  0  0  0  0  0  0
    6.5840   -1.9470   29.1390 C   0  0  0  0  0  0  0  0  0  0  0  0
    6.3570   -0.8290   30.0900 C   0  0  0  0  0  0  0  0  0  0  0  0
    4.9820   -0.4770   30.6530 C   0  0  0  0  0  0  0  0  0  0  0  0
    3.8600   -1.3180   30.1980 C   0  0  0  0  0  0  0  0  0  0  0  0
    4.2290   -2.4240   29.2280 C   0  0  0  0  0  0  0  0  0  0  0  0
    3.2070   -3.1910   28.8150 N   0  0  0  0  0  0  0  0  0  0  0  0
    2.1890   -2.8070   27.8890 C   0  0  0  0  0  0  0  0  0  0  0  0
    2.8480   -4.1230   29.8530 C   0  0  0  0  0  0  0  0  0  0  0  0
    5.8210   -4.8770   23.5610 C   0  0  0  0  0  0  0  0  0  0  0  0
    6.4680   -5.3830   22.2990 C   0  0  0  0  0  0  0  0  0  0  0  0
  1  2  1  0
  2  3  2  0
  2  4  1  0
  4  5  1  0
  5  6  1  0
  6  7  1  0
  7  8  1  0
  8  9  2  0
  8 10  1  0
 10 11  1  0
 11 12  1  1
 11 13  1  0
 13 14  2  0
 14 15  1  0
 15 16  2  0
 16 17  1  0
 13 18  1  0
 17 18  2  0
 18 19  1  0
 19 20  1  0
 19 21  1  0
  7 22  1  0
  4 23  1  0
 22 23  1  0
M  END
