piperidine-amides-3335-covalent
     RDKit          3D

 21 22  0  0  0  0  0  0  0  0999 V2000
    7.1120   -3.3000   19.2770 C   0  0  0  0  0  0  0  0  0  0  0  0
    6.3860   -4.1000   20.2560 C   0  0  0  0  0  0  0  0  0  0  0  0
    5.3440   -4.6720   19.9360 O   0  0  0  0  0  0  0  0  0  0  0  0
    6.9220   -4.2640   21.5780 N   0  0  0  0  0  0  0  0  0  0  0  0
    7.6390   -3.1760   22.1800 C   0  0  0  0  0  0  0  0  0  0  0  0
    6.8930   -2.6910   23.3890 C   0  0  0  0  0  0  0  0  0  0  0  0
    6.4920   -3.8930   24.2370 C   0  0  0  0  0  0  0  0  0  0  0  0
    5.6930   -3.4420   25.4130 C   0  0  0  0  0  0  0  0  0  0  0  0
    4.4500   -3.5350   25.4350 O   0  0  0  0  0  0  0  0  0  0  0  0
    6.3430   -2.8750   26.5310 N   0  0  0  0  0  0  0  0  0  0  0  0
    6.6560   -1.4740   26.4460 C   0  0  0  0  0  0  0  0  0  0  0  0
    6.5870   -0.8410   27.8150 C   0  0  0  0  0  0  0  0  0  0  0  0
    7.1700   -1.4110   28.9460 C   0  0  0  0  0  0  0  0  0  0  0  0
    7.1010   -0.7970   30.2090 C   0  0  0  0  0  0  0  0  0  0  0  0
    6.4450    0.3960   30.3800 C   0  0  0  0  0  0  0  0  0  0  0  0
    6.3320    1.2430   32.0780 Br  0  0  0  0  0  0  0  0  0  0  0  0
    5.8470    0.9670   29.2020 C   0  0  0  0  0  0  0  0  0  0  0  0
    5.9290    0.3570   27.9840 C   0  0  0  0  0  0  0  0  0  0  0  0
    5.3160    1.0360   26.9980 N   0  0  0  0  0  0  0  0  0  0  0  0
    5.6230   -4.8320   23.4030 C   0  0  0  0  0  0  0  0  0  0  0  0
    6.3920   -5.3530   22.3660 C   0  0  0  0  0  0  0  0  0  0  0  0
  1  2  1  0
  2  3  2  0
  2  4  1  0
  4  5  1  0
  5  6  1  0
  6  7  1  0
  7  8  1  0
  8  9  2  0
  8 10  1  0
 10 11  1  0
 11 12  1  0
 12 13  2  0
 13 14  1  0
 14 15  2  0
 15 16  1  0
 15 17  1  0
 12 18  1  0
 17 18  2  0
 18 19  1  0
  7 20  1  0
  4 21  1  0
 20 21  1  0
M  END
