piperidine-amides-4142-covalent
     RDKit          3D

 27 28  0  0  0  0  0  0  0  0999 V2000
    7.1590   -3.2740   19.1940 C   0  0  0  0  0  0  0  0  0  0  0  0
    6.4130   -4.0310   20.2080 C   0  0  0  0  0  0  0  0  0  0  0  0
    5.3020   -4.5060   19.8690 O   0  0  0  0  0  0  0  0  0  0  0  0
    6.9680   -4.2640   21.4880 N   0  0  0  0  0  0  0  0  0  0  0  0
    7.6320   -3.1780   22.1210 C   0  0  0  0  0  0  0  0  0  0  0  0
    7.2120   -2.8850   23.4860 C   0  0  0  0  0  0  0  0  0  0  0  0
    6.4570   -3.9430   24.1960 C   0  0  0  0  0  0  0  0  0  0  0  0
    5.7000   -3.3780   25.3590 C   0  0  0  0  0  0  0  0  0  0  0  0
    4.5080   -3.0530   25.1960 O   0  0  0  0  0  0  0  0  0  0  0  0
    6.2970   -3.1970   26.6220 N   0  0  0  0  0  0  0  0  0  0  0  0
    6.0630   -3.9200   27.8210 C   0  0  1  0  0  0  0  0  0  0  0  0
    5.1080   -3.2740   28.7440 C   0  0  0  0  0  0  0  0  0  0  0  0
    4.0170   -4.2320   29.1520 C   0  0  0  0  0  0  0  0  0  0  0  0
    3.0040   -3.9110   29.9910 C   0  0  0  0  0  0  0  0  0  0  0  0
    2.9400   -2.4890   30.5770 C   0  0  0  0  0  0  0  0  0  0  0  0
    4.0280   -1.4880   30.1920 C   0  0  0  0  0  0  0  0  0  0  0  0
    5.1830   -1.8850   29.2220 C   0  0  0  0  0  0  0  0  0  0  0  0
    6.2850   -0.9360   28.8030 C   0  0  0  0  0  0  0  0  0  0  0  0
    6.3870   -0.9240   27.4300 F   0  0  0  0  0  0  0  0  0  0  0  0
    7.4720   -1.4070   29.3810 F   0  0  0  0  0  0  0  0  0  0  0  0
    6.0210    0.3410   29.2730 F   0  0  0  0  0  0  0  0  0  0  0  0
    5.8110   -5.2810   27.7260 C   0  0  0  0  0  0  0  0  0  0  0  0
    6.1110   -5.9750   26.5990 F   0  0  0  0  0  0  0  0  0  0  0  0
    4.4570   -5.5250   28.0020 F   0  0  0  0  0  0  0  0  0  0  0  0
    6.4510   -5.8250   28.8740 F   0  0  0  0  0  0  0  0  0  0  0  0
    5.4900   -4.7010   23.2760 C   0  0  0  0  0  0  0  0  0  0  0  0
    6.3500   -5.3450   22.2600 C   0  0  0  0  0  0  0  0  0  0  0  0
  1  2  1  0
  2  3  2  0
  2  4  1  0
  4  5  1  0
  5  6  1  0
  6  7  1  0
  7  8  1  0
  8  9  2  0
  8 10  1  0
 11 10  1  6
 11 12  1  0
 12 13  2  0
 13 14  1  0
 14 15  2  0
 15 16  1  0
 12 17  1  0
 16 17  2  0
 17 18  1  0
 18 19  1  0
 18 20  1  0
 18 21  1  0
 11 22  1  0
 22 23  1  0
 22 24  1  0
 22 25  1  0
  7 26  1  0
  4 27  1  0
 26 27  1  0
M  END
