piperidine-amides-6518-covalent
     RDKit          3D

 24 25  0  0  0  0  0  0  0  0999 V2000
    7.0830   -3.2580   19.2520 C   0  0  0  0  0  0  0  0  0  0  0  0
    6.3460   -4.0410   20.2650 C   0  0  0  0  0  0  0  0  0  0  0  0
    5.3420   -4.7040   19.9360 O   0  0  0  0  0  0  0  0  0  0  0  0
    6.7720   -4.0860   21.6010 N   0  0  0  0  0  0  0  0  0  0  0  0
    6.6750   -5.3580   22.2920 C   0  0  0  0  0  0  0  0  0  0  0  0
    6.1760   -5.1100   23.7250 C   0  0  0  0  0  0  0  0  0  0  0  0
    6.2410   -3.6250   24.0020 C   0  0  0  0  0  0  0  0  0  0  0  0
    6.0740   -3.3360   25.4400 C   0  0  0  0  0  0  0  0  0  0  0  0
    4.9260   -3.0330   25.8400 O   0  0  0  0  0  0  0  0  0  0  0  0
    7.1960   -3.3980   26.3190 N   0  0  0  0  0  0  0  0  0  0  0  0
    7.6230   -4.6550   26.8910 C   0  0  0  0  0  0  0  0  0  0  0  0
    8.8610   -5.0820   26.1130 C   0  0  0  0  0  0  0  0  0  0  0  0
    7.9990   -4.4260   28.2950 C   0  0  0  0  0  0  0  0  0  0  0  0
    6.6240   -5.7100   26.7860 C   0  0  0  0  0  0  0  0  0  0  0  0
    5.8370   -6.1660   27.8440 C   0  0  0  0  0  0  0  0  0  0  0  0
    6.3030   -6.4430   29.1270 C   0  0  0  0  0  0  0  0  0  0  0  0
    5.7170   -6.9580   30.4870 C   0  0  0  0  0  0  0  0  0  0  0  0
    4.2530   -7.1240   30.0360 C   0  0  0  0  0  0  0  0  0  0  0  0
    2.9770   -7.7460   31.3130 Br  0  0  0  0  0  0  0  0  0  0  0  0
    3.8320   -6.8120   28.6460 C   0  0  0  0  0  0  0  0  0  0  0  0
    2.4670   -7.1980   28.9930 C   0  0  0  0  0  0  0  0  0  0  0  0
    4.5430   -6.3620   27.5980 C   0  0  0  0  0  0  0  0  0  0  0  0
    7.6140   -3.1100   23.5940 C   0  0  0  0  0  0  0  0  0  0  0  0
    7.7090   -3.0970   22.0970 C   0  0  0  0  0  0  0  0  0  0  0  0
  1  2  1  0
  2  3  2  0
  2  4  1  0
  4  5  1  0
  5  6  1  0
  6  7  1  0
  7  8  1  0
  8  9  2  0
  8 10  1  0
 11 10  1  0
 11 12  1  0
 11 13  1  0
 11 14  1  0
 14 15  1  0
 15 16  2  0
 16 17  1  0
 17 18  2  0
 18 19  1  0
 18 20  1  0
 20 21  1  0
 15 22  1  0
 20 22  2  0
  7 23  1  0
  4 24  1  0
 23 24  1  0
M  END
