piperidine-amides-13186-covalent
     RDKit          3D

 19 20  0  0  0  0  0  0  0  0999 V2000
    7.1340   -3.2420   19.1460 C   0  0  0  0  0  0  0  0  0  0  0  0
    6.3420   -3.9730   20.1620 C   0  0  0  0  0  0  0  0  0  0  0  0
    5.2360   -4.4180   19.8130 O   0  0  0  0  0  0  0  0  0  0  0  0
    6.8400   -4.2060   21.4390 N   0  0  0  0  0  0  0  0  0  0  0  0
    7.5860   -3.1710   22.0790 C   0  0  0  0  0  0  0  0  0  0  0  0
    7.2560   -2.9610   23.4830 C   0  0  0  0  0  0  0  0  0  0  0  0
    6.4860   -4.0390   24.1400 C   0  0  0  0  0  0  0  0  0  0  0  0
    5.8140   -3.4690   25.3260 C   0  0  0  0  0  0  0  0  0  0  0  0
    4.5750   -3.5490   25.4220 O   0  0  0  0  0  0  0  0  0  0  0  0
    6.5780   -2.8320   26.3210 N   0  0  0  0  0  0  0  0  0  0  0  0
    6.1910   -2.7790   27.7410 C   0  0  0  0  0  0  0  0  0  0  0  0
    6.1800   -1.3550   28.2080 C   0  0  2  0  0  0  0  0  0  0  0  0
    6.5910   -1.1500   29.6230 C   0  0  0  0  0  0  0  0  0  0  0  0
    5.9370    0.0570   29.9870 N   0  0  0  0  0  0  0  0  0  0  0  0
    5.0860    0.4160   28.9750 C   0  0  0  0  0  0  0  0  0  0  0  0
    4.4030    1.4540   29.0200 O   0  0  0  0  0  0  0  0  0  0  0  0
    5.0900   -0.4760   27.9590 O   0  0  0  0  0  0  0  0  0  0  0  0
    5.5530   -4.7790   23.2380 C   0  0  0  0  0  0  0  0  0  0  0  0
    6.2330   -5.2620   22.1710 C   0  0  0  0  0  0  0  0  0  0  0  0
  1  2  1  0
  2  3  2  0
  2  4  1  0
  4  5  1  0
  5  6  1  0
  6  7  1  0
  7  8  1  0
  8  9  2  0
  8 10  1  0
 10 11  1  0
 12 11  1  1
 12 13  1  0
 13 14  1  0
 14 15  1  0
 15 16  2  0
 12 17  1  0
 15 17  1  0
  7 18  1  0
  4 19  1  0
 18 19  1  0
M  END
