piperidine-amides-11831-covalent
     RDKit          3D

 27 29  0  0  0  0  0  0  0  0999 V2000
    7.0780   -3.3450   19.3660 C   0  0  0  0  0  0  0  0  0  0  0  0
    6.3390   -4.1460   20.3330 C   0  0  0  0  0  0  0  0  0  0  0  0
    5.3550   -4.7890   19.9680 O   0  0  0  0  0  0  0  0  0  0  0  0
    6.7900   -4.2190   21.6940 N   0  0  0  0  0  0  0  0  0  0  0  0
    7.6810   -3.1960   22.2080 C   0  0  0  0  0  0  0  0  0  0  0  0
    7.4490   -2.9680   23.6730 C   0  0  0  0  0  0  0  0  0  0  0  0
    6.0780   -3.5220   23.9760 C   0  0  0  0  0  0  0  0  0  0  0  0
    5.6210   -3.1540   25.3490 C   0  0  0  0  0  0  0  0  0  0  0  0
    4.4280   -3.2560   25.6750 O   0  0  0  0  0  0  0  0  0  0  0  0
    6.5650   -2.6700   26.2940 N   0  0  0  0  0  0  0  0  0  0  0  0
    6.1510   -1.6940   27.2940 C   0  0  2  0  0  0  0  0  0  0  0  0
    4.9530   -2.3100   27.9840 C   0  0  0  0  0  0  0  0  0  0  0  0
    4.8000   -3.6560   27.7250 O   0  0  0  0  0  0  0  0  0  0  0  0
    4.0450   -1.7150   28.8270 O   0  0  0  0  0  0  0  0  0  0  0  0
    4.1530   -1.6770   30.2210 C   0  0  0  0  0  0  0  0  0  0  0  0
    5.7370   -0.4290   26.6540 C   0  0  0  0  0  0  0  0  0  0  0  0
    5.5140    0.7060   27.4360 C   0  0  0  0  0  0  0  0  0  0  0  0
    6.1020    0.6890   28.7810 C   0  0  0  0  0  0  0  0  0  0  0  0
    5.8950    1.6640   29.7630 C   0  0  0  0  0  0  0  0  0  0  0  0
    6.4620    1.6280   31.0260 C   0  0  0  0  0  0  0  0  0  0  0  0
    6.0930    3.0200   32.2680 Br  0  0  0  0  0  0  0  0  0  0  0  0
    7.2790    0.5640   31.3190 C   0  0  0  0  0  0  0  0  0  0  0  0
    7.5220   -0.4660   30.3360 C   0  0  0  0  0  0  0  0  0  0  0  0
    6.9270   -0.3820   29.0930 C   0  0  0  0  0  0  0  0  0  0  0  0
    7.1750   -1.3780   28.1820 C   0  0  0  0  0  0  0  0  0  0  0  0
    6.0710   -5.0300   23.8250 C   0  0  0  0  0  0  0  0  0  0  0  0
    6.6330   -5.4340   22.4530 C   0  0  0  0  0  0  0  0  0  0  0  0
  1  2  1  0
  2  3  2  0
  2  4  1  0
  4  5  1  0
  5  6  1  0
  6  7  1  0
  7  8  1  0
  8  9  2  0
  8 10  1  0
 11 10  1  6
 11 12  1  0
 12 13  2  0
 12 14  1  0
 14 15  1  0
 11 16  1  0
 16 17  1  0
 17 18  1  0
 18 19  2  0
 19 20  1  0
 20 21  1  0
 20 22  2  0
 22 23  1  0
 18 24  1  0
 23 24  2  0
 11 25  1  0
 24 25  1  0
  7 26  1  0
  4 27  1  0
 26 27  1  0
M  END
