piperidine-amides-281-covalent
     RDKit          3D

 29 30  0  0  0  0  0  0  0  0999 V2000
    7.2200   -3.2880   19.3200 C   0  0  0  0  0  0  0  0  0  0  0  0
    6.4120   -3.9930   20.2890 C   0  0  0  0  0  0  0  0  0  0  0  0
    5.3430   -4.5650   19.9010 O   0  0  0  0  0  0  0  0  0  0  0  0
    6.8160   -4.0930   21.6340 N   0  0  0  0  0  0  0  0  0  0  0  0
    6.6970   -5.4420   22.2410 C   0  0  0  0  0  0  0  0  0  0  0  0
    5.9810   -5.1100   23.6100 C   0  0  0  0  0  0  0  0  0  0  0  0
    6.2480   -3.6480   23.8690 C   0  0  0  0  0  0  0  0  0  0  0  0
    5.6830   -3.0930   25.2440 C   0  0  0  0  0  0  0  0  0  0  0  0
    5.3250   -1.9310   25.1310 O   0  0  0  0  0  0  0  0  0  0  0  0
    5.7280   -4.0070   26.1180 N   0  0  0  0  0  0  0  0  0  0  0  0
    5.6730   -4.9390   27.1120 C   0  0  2  0  0  0  0  0  0  0  0  0
    5.8670   -6.2800   27.3350 C   0  0  0  0  0  0  0  0  0  0  0  0
    5.4970   -6.6510   28.6460 C   0  0  0  0  0  0  0  0  0  0  0  0
    6.1050   -5.8070   29.6820 C   0  0  0  0  0  0  0  0  0  0  0  0
    6.7650   -4.6840   29.1970 O   0  0  0  0  0  0  0  0  0  0  0  0
    6.0070   -6.1320   31.0190 O   0  0  0  0  0  0  0  0  0  0  0  0
    5.7090   -7.4700   31.0670 C   0  0  0  0  0  0  0  0  0  0  0  0
    5.5040   -7.9660   32.3620 C   0  0  0  0  0  0  0  0  0  0  0  0
    4.2300   -7.6580   31.3560 C   0  0  0  0  0  0  0  0  0  0  0  0
    6.2190   -8.1780   29.8850 C   0  0  0  0  0  0  0  0  0  0  0  0
    4.3280   -4.5740   27.7540 C   0  0  0  0  0  0  0  0  0  0  0  0
    3.9730   -5.6420   26.9270 C   0  0  0  0  0  0  0  0  0  0  0  0
    3.3010   -6.7220   27.4260 C   0  0  0  0  0  0  0  0  0  0  0  0
    2.9300   -7.7640   26.6840 C   0  0  0  0  0  0  0  0  0  0  0  0
    3.1970   -7.8270   25.3490 C   0  0  0  0  0  0  0  0  0  0  0  0
    3.8720   -6.8440   24.6090 C   0  0  0  0  0  0  0  0  0  0  0  0
    4.2420   -5.7100   25.5630 C   0  0  0  0  0  0  0  0  0  0  0  0
    7.6360   -3.1350   23.6110 C   0  0  0  0  0  0  0  0  0  0  0  0
    7.7540   -3.0990   22.1040 C   0  0  0  0  0  0  0  0  0  0  0  0
  1  2  1  0
  2  3  2  0
  2  4  1  0
  4  5  1  0
  5  6  1  0
  6  7  1  0
  7  8  1  0
  8  9  2  0
  8 10  1  0
 10 11  1  0
 11 12  1  6
 12 13  1  0
 13 14  1  0
 14 15  2  0
 14 16  1  0
 17 16  1  0
 17 18  1  0
 17 19  1  0
 17 20  1  0
 11 21  1  0
 21 22  1  0
 22 23  2  0
 23 24  1  0
 24 25  2  0
 25 26  1  0
 22 27  1  0
 26 27  2  0
  7 28  1  0
  4 29  1  0
 28 29  1  0
M  END
