piperidine-amides-33022-covalent
     RDKit          3D

 27 29  0  0  0  0  0  0  0  0999 V2000
    7.0390   -3.3530   19.3660 C   0  0  0  0  0  0  0  0  0  0  0  0
    6.3630   -4.2350   20.3580 C   0  0  0  0  0  0  0  0  0  0  0  0
    5.3750   -4.8940   19.9890 O   0  0  0  0  0  0  0  0  0  0  0  0
    6.8730   -4.3450   21.6760 N   0  0  0  0  0  0  0  0  0  0  0  0
    7.7270   -3.3390   22.2660 C   0  0  0  0  0  0  0  0  0  0  0  0
    7.0180   -2.7880   23.5080 C   0  0  0  0  0  0  0  0  0  0  0  0
    6.4280   -3.9300   24.2750 C   0  0  0  0  0  0  0  0  0  0  0  0
    5.5630   -3.4280   25.3940 C   0  0  0  0  0  0  0  0  0  0  0  0
    4.8090   -2.5090   25.0730 O   0  0  0  0  0  0  0  0  0  0  0  0
    5.5580   -3.9390   26.7160 N   0  0  0  0  0  0  0  0  0  0  0  0
    4.4020   -4.1900   27.4670 C   0  0  0  0  0  0  0  0  0  0  0  0
    4.4080   -4.2250   28.8490 C   0  0  0  0  0  0  0  0  0  0  0  0
    5.5610   -4.9950   29.2620 N   0  0  0  0  0  0  0  0  0  0  0  0
    5.4770   -6.2160   29.9370 C   0  0  0  0  0  0  0  0  0  0  0  0
    4.3010   -6.8620   29.6390 C   0  0  0  0  0  0  0  0  0  0  0  0
    3.3550   -7.2960   30.6060 N   0  0  0  0  0  0  0  0  0  0  0  0
    2.1780   -7.9590   30.1190 C   0  0  0  0  0  0  0  0  0  0  0  0
    1.0290   -8.5090   30.9770 C   0  0  0  0  0  0  0  0  0  0  0  0
    1.3920   -8.4230   32.3320 F   0  0  0  0  0  0  0  0  0  0  0  0
   -0.1460   -7.7470   30.8110 F   0  0  0  0  0  0  0  0  0  0  0  0
    0.7520   -9.8060   30.6860 F   0  0  0  0  0  0  0  0  0  0  0  0
    2.1910   -8.0510   28.7520 C   0  0  0  0  0  0  0  0  0  0  0  0
    3.6490   -7.3240   28.0690 S   0  0  0  0  0  0  0  0  0  0  0  0
    6.6220   -4.8770   28.4580 C   0  0  0  0  0  0  0  0  0  0  0  0
    6.4320   -3.5480   27.7830 C   0  0  0  0  0  0  0  0  0  0  0  0
    5.6640   -4.9290   23.4530 C   0  0  0  0  0  0  0  0  0  0  0  0
    6.5220   -5.4480   22.5120 C   0  0  0  0  0  0  0  0  0  0  0  0
  1  2  1  0
  2  3  2  0
  2  4  1  0
  4  5  1  0
  5  6  1  0
  6  7  1  0
  7  8  1  0
  8  9  2  0
  8 10  1  0
 10 11  1  0
 11 12  1  0
 12 13  1  0
 13 14  1  0
 14 15  1  0
 15 16  2  0
 16 17  1  0
 17 18  1  0
 18 19  1  0
 18 20  1  0
 18 21  1  0
 17 22  2  0
 15 23  1  0
 22 23  1  0
 13 24  1  0
 10 25  1  0
 24 25  1  0
  7 26  1  0
  4 27  1  0
 26 27  1  0
M  END
