piperidine-amides-24540-covalent
     RDKit          3D

 24 26  0  0  0  0  0  0  0  0999 V2000
    7.1260   -3.3200   19.2850 C   0  0  0  0  0  0  0  0  0  0  0  0
    6.4400   -4.1780   20.2610 C   0  0  0  0  0  0  0  0  0  0  0  0
    5.3780   -4.7630   19.9610 O   0  0  0  0  0  0  0  0  0  0  0  0
    7.0170   -4.3970   21.5130 N   0  0  0  0  0  0  0  0  0  0  0  0
    6.5880   -5.5520   22.2550 C   0  0  0  0  0  0  0  0  0  0  0  0
    5.6930   -4.9800   23.3480 C   0  0  0  0  0  0  0  0  0  0  0  0
    6.5530   -4.0140   24.1350 C   0  0  0  0  0  0  0  0  0  0  0  0
    5.7220   -3.3790   25.1610 C   0  0  0  0  0  0  0  0  0  0  0  0
    4.8280   -2.5900   24.7970 O   0  0  0  0  0  0  0  0  0  0  0  0
    5.9260   -3.6650   26.5110 N   0  0  0  0  0  0  0  0  0  0  0  0
    6.4890   -2.6480   27.3380 C   0  0  0  0  0  0  0  0  0  0  0  0
    6.6270   -3.3890   28.6220 C   0  0  0  0  0  0  0  0  0  0  0  0
    5.6060   -4.2310   28.6240 C   0  0  2  0  0  0  0  0  0  0  0  0
    4.4570   -3.9010   29.3120 C   0  0  0  0  0  0  0  0  0  0  0  0
    3.2920   -4.6530   29.2430 O   0  0  0  0  0  0  0  0  0  0  0  0
    4.4920   -2.7750   30.0930 O   0  0  0  0  0  0  0  0  0  0  0  0
    4.3900   -1.5410   29.4940 C   0  0  0  0  0  0  0  0  0  0  0  0
    5.5660   -0.8730   29.7610 C   0  0  0  0  0  0  0  0  0  0  0  0
    6.0210   -5.4340   29.0220 C   0  0  0  0  0  0  0  0  0  0  0  0
    5.4210   -6.3760   28.0390 C   0  0  0  0  0  0  0  0  0  0  0  0
    5.3690   -5.8570   26.6090 C   0  0  0  0  0  0  0  0  0  0  0  0
    5.1470   -4.5790   27.3590 C   0  0  2  0  0  0  0  0  0  0  0  0
    7.0850   -2.9090   23.2750 C   0  0  0  0  0  0  0  0  0  0  0  0
    7.7030   -3.3160   22.1440 C   0  0  0  0  0  0  0  0  0  0  0  0
  1  2  1  0
  2  3  2  0
  2  4  1  0
  4  5  1  0
  5  6  1  0
  6  7  1  0
  7  8  1  0
  8  9  2  0
  8 10  1  0
 10 11  1  0
 11 12  1  0
 12 13  1  0
 13 14  1  1
 14 15  2  0
 14 16  1  0
 16 17  1  0
 17 18  1  0
 13 19  1  0
 19 20  1  0
 20 21  1  0
 10 22  1  0
 13 22  1  0
 22 21  1  6
  7 23  1  0
  4 24  1  0
 23 24  1  0
M  END
