piperidine-amides-23995-covalent
     RDKit          3D

 24 26  0  0  0  0  0  0  0  0999 V2000
    7.0570   -3.4220   19.4400 C   0  0  0  0  0  0  0  0  0  0  0  0
    6.4050   -4.2880   20.4320 C   0  0  0  0  0  0  0  0  0  0  0  0
    5.4090   -4.9380   20.0180 O   0  0  0  0  0  0  0  0  0  0  0  0
    6.9190   -4.4250   21.7570 N   0  0  0  0  0  0  0  0  0  0  0  0
    6.5370   -5.5520   22.5550 C   0  0  0  0  0  0  0  0  0  0  0  0
    6.0350   -5.1750   23.8780 C   0  0  0  0  0  0  0  0  0  0  0  0
    6.0030   -3.7170   24.0560 C   0  0  0  0  0  0  0  0  0  0  0  0
    5.3180   -3.1710   25.3000 C   0  0  0  0  0  0  0  0  0  0  0  0
    4.6440   -2.1450   25.1500 O   0  0  0  0  0  0  0  0  0  0  0  0
    5.3470   -3.7000   26.6200 N   0  0  0  0  0  0  0  0  0  0  0  0
    6.3630   -3.5350   27.5120 C   0  0  0  0  0  0  0  0  0  0  0  0
    6.5650   -4.6570   28.4210 C   0  0  0  0  0  0  0  0  0  0  0  0
    5.5190   -5.0490   29.1180 N   0  0  0  0  0  0  0  0  0  0  0  0
    5.3400   -6.4250   29.5120 C   0  0  0  0  0  0  0  0  0  0  0  0
    4.9150   -6.4980   30.8240 C   0  0  0  0  0  0  0  0  0  0  0  0
    5.7510   -7.6240   31.3730 C   0  0  0  0  0  0  0  0  0  0  0  0
    5.1730   -7.5540   32.7330 C   0  0  0  0  0  0  0  0  0  0  0  0
    4.2240   -6.6060   32.9220 N   0  0  0  0  0  0  0  0  0  0  0  0
    4.0790   -5.9700   31.7510 N   0  0  0  0  0  0  0  0  0  0  0  0
    3.2180   -4.9640   31.5790 C   0  0  0  0  0  0  0  0  0  0  0  0
    4.3830   -4.2860   28.8390 C   0  0  0  0  0  0  0  0  0  0  0  0
    4.1540   -3.9040   27.3650 C   0  0  0  0  0  0  0  0  0  0  0  0
    7.3930   -3.1250   23.7880 C   0  0  0  0  0  0  0  0  0  0  0  0
    7.6390   -3.2490   22.3160 C   0  0  0  0  0  0  0  0  0  0  0  0
  1  2  1  0
  2  3  2  0
  2  4  1  0
  4  5  1  0
  5  6  1  0
  6  7  1  0
  7  8  1  0
  8  9  2  0
  8 10  1  0
 10 11  1  0
 11 12  1  0
 12 13  1  0
 13 14  1  0
 14 15  1  0
 15 16  2  0
 16 17  1  0
 17 18  2  0
 15 19  1  0
 18 19  1  0
 19 20  1  0
 13 21  1  0
 10 22  1  0
 21 22  1  0
  7 23  1  0
  4 24  1  0
 23 24  1  0
M  END
