piperidine-amides-19473-covalent
     RDKit          3D

 22 24  0  0  0  0  0  0  0  0999 V2000
    6.9920   -3.4010   19.4000 C   0  0  0  0  0  0  0  0  0  0  0  0
    6.3550   -4.2020   20.4270 C   0  0  0  0  0  0  0  0  0  0  0  0
    5.4330   -4.9790   20.0220 O   0  0  0  0  0  0  0  0  0  0  0  0
    6.7190   -4.1950   21.8090 N   0  0  0  0  0  0  0  0  0  0  0  0
    6.6230   -5.5070   22.5010 C   0  0  0  0  0  0  0  0  0  0  0  0
    6.0060   -5.1310   23.9190 C   0  0  0  0  0  0  0  0  0  0  0  0
    6.0050   -3.6190   24.0220 C   0  0  0  0  0  0  0  0  0  0  0  0
    4.9270   -2.9540   25.0550 C   0  0  0  0  0  0  0  0  0  0  0  0
    3.9790   -2.5940   24.3940 O   0  0  0  0  0  0  0  0  0  0  0  0
    5.2400   -2.9320   26.3060 N   0  0  0  0  0  0  0  0  0  0  0  0
    5.2300   -2.6090   27.6400 C   0  0  0  0  0  0  0  0  0  0  0  0
    5.5750   -3.3520   28.7020 C   0  0  0  0  0  0  0  0  0  0  0  0
    6.1290   -4.3800   27.9930 C   0  0  1  0  0  0  0  0  0  0  0  0
    5.2550   -5.4520   27.4860 C   0  0  0  0  0  0  0  0  0  0  0  0
    5.1630   -6.6190   28.4280 C   0  0  0  0  0  0  0  0  0  0  0  0
    4.2610   -7.6120   27.8080 N   0  0  0  0  0  0  0  0  0  0  0  0
    3.8500   -7.1030   26.6040 N   0  0  0  0  0  0  0  0  0  0  0  0
    3.0350   -7.8330   25.8690 C   0  0  0  0  0  0  0  0  0  0  0  0
    4.4130   -5.7870   26.3400 C   0  0  0  0  0  0  0  0  0  0  0  0
    6.2330   -3.8880   26.5470 C   0  0  0  0  0  0  0  0  0  0  0  0
    7.3540   -3.0490   23.7260 C   0  0  0  0  0  0  0  0  0  0  0  0
    7.5680   -3.1540   22.3600 C   0  0  0  0  0  0  0  0  0  0  0  0
  1  2  1  0
  2  3  2  0
  2  4  1  0
  4  5  1  0
  5  6  1  0
  6  7  1  0
  7  8  1  0
  8  9  2  0
  8 10  1  0
 10 11  1  0
 11 12  1  0
 12 13  1  0
 13 14  1  6
 14 15  1  0
 15 16  2  0
 16 17  1  0
 17 18  1  0
 14 19  2  0
 17 19  1  0
 10 20  1  0
 13 20  1  0
  7 21  1  0
  4 22  1  0
 21 22  1  0
M  END
