piperidine-amides-32960-covalent
     RDKit          3D

 29 31  0  0  0  0  0  0  0  0999 V2000
    7.0920   -3.3320   19.3310 C   0  0  0  0  0  0  0  0  0  0  0  0
    6.3840   -4.2080   20.3000 C   0  0  0  0  0  0  0  0  0  0  0  0
    5.3310   -4.7640   19.9530 O   0  0  0  0  0  0  0  0  0  0  0  0
    6.9530   -4.4410   21.5660 N   0  0  0  0  0  0  0  0  0  0  0  0
    6.5760   -5.5910   22.3350 C   0  0  0  0  0  0  0  0  0  0  0  0
    5.6460   -5.0580   23.4230 C   0  0  0  0  0  0  0  0  0  0  0  0
    6.4500   -4.1240   24.2610 C   0  0  0  0  0  0  0  0  0  0  0  0
    5.6900   -3.6040   25.4270 C   0  0  0  0  0  0  0  0  0  0  0  0
    4.6730   -2.9620   25.1480 O   0  0  0  0  0  0  0  0  0  0  0  0
    6.0890   -3.8190   26.7570 N   0  0  0  0  0  0  0  0  0  0  0  0
    5.8510   -2.9370   27.8100 C   0  0  0  0  0  0  0  0  0  0  0  0
    6.0430   -3.3630   29.0840 C   0  0  0  0  0  0  0  0  0  0  0  0
    5.1330   -4.4660   29.3160 N   0  0  0  0  0  0  0  0  0  0  0  0
    4.0110   -4.4190   30.1420 C   0  0  0  0  0  0  0  0  0  0  0  0
    3.5790   -3.2640   30.7750 O   0  0  0  0  0  0  0  0  0  0  0  0
    3.3500   -5.6180   30.2890 C   0  0  0  0  0  0  0  0  0  0  0  0
    3.8270   -6.6410   31.2380 C   0  0  0  0  0  0  0  0  0  0  0  0
    3.1360   -7.9880   31.4430 C   0  0  0  0  0  0  0  0  0  0  0  0
    1.8850   -8.2630   30.6070 C   0  0  0  0  0  0  0  0  0  0  0  0
    1.1130   -9.4110   30.6350 O   0  0  0  0  0  0  0  0  0  0  0  0
    0.7740  -10.0330   29.4180 C   0  0  0  0  0  0  0  0  0  0  0  0
    1.4480   -7.1930   29.6650 C   0  0  0  0  0  0  0  0  0  0  0  0
    2.2210   -5.8800   29.5460 C   0  0  0  0  0  0  0  0  0  0  0  0
    1.8280   -4.9920   28.7410 O   0  0  0  0  0  0  0  0  0  0  0  0
    1.7640   -5.3400   27.3790 C   0  0  0  0  0  0  0  0  0  0  0  0
    4.9790   -5.3790   28.2350 C   0  0  0  0  0  0  0  0  0  0  0  0
    6.1060   -5.2060   27.2880 C   0  0  0  0  0  0  0  0  0  0  0  0
    6.9520   -2.9260   23.4740 C   0  0  0  0  0  0  0  0  0  0  0  0
    7.6610   -3.3530   22.2430 C   0  0  0  0  0  0  0  0  0  0  0  0
  1  2  1  0
  2  3  2  0
  2  4  1  0
  4  5  1  0
  5  6  1  0
  6  7  1  0
  7  8  1  0
  8  9  2  0
  8 10  1  0
 10 11  1  0
 11 12  1  0
 12 13  1  0
 13 14  1  0
 14 15  2  0
 14 16  1  0
 16 17  2  0
 17 18  1  0
 18 19  2  0
 19 20  1  0
 20 21  1  0
 19 22  1  0
 16 23  1  0
 22 23  2  0
 23 24  1  0
 24 25  1  0
 13 26  1  0
 10 27  1  0
 26 27  1  0
  7 28  1  0
  4 29  1  0
 28 29  1  0
M  END
