piperidine-amides-11344-covalent
     RDKit          3D

 24 26  0  0  0  0  0  0  0  0999 V2000
    7.0750   -3.3550   19.3510 C   0  0  0  0  0  0  0  0  0  0  0  0
    6.3550   -4.1320   20.3590 C   0  0  0  0  0  0  0  0  0  0  0  0
    5.4070   -4.8490   19.9930 O   0  0  0  0  0  0  0  0  0  0  0  0
    6.7600   -4.1090   21.7110 N   0  0  0  0  0  0  0  0  0  0  0  0
    7.7130   -3.1300   22.1920 C   0  0  0  0  0  0  0  0  0  0  0  0
    7.4870   -3.1130   23.6670 C   0  0  0  0  0  0  0  0  0  0  0  0
    6.1350   -3.6750   23.9440 C   0  0  0  0  0  0  0  0  0  0  0  0
    5.6140   -3.4040   25.3090 C   0  0  0  0  0  0  0  0  0  0  0  0
    4.3660   -3.4120   25.5070 O   0  0  0  0  0  0  0  0  0  0  0  0
    6.4230   -3.1290   26.4340 N   0  0  0  0  0  0  0  0  0  0  0  0
    6.8450   -1.7460   26.7600 C   0  0  2  0  0  0  0  0  0  0  0  0
    6.7240   -1.4820   28.1750 C   0  0  0  0  0  0  0  0  0  0  0  0
    5.7910   -0.4560   27.8130 C   0  0  0  0  0  0  0  0  0  0  0  0
    6.2370    0.8980   28.2740 C   0  0  0  0  0  0  0  0  0  0  0  0
    5.1930    1.8970   27.7590 C   0  0  0  0  0  0  0  0  0  0  0  0
    4.4580    1.2560   26.6230 C   0  0  2  0  0  0  0  0  0  0  0  0
    3.1190    1.5040   26.4130 C   0  0  0  0  0  0  0  0  0  0  0  0
    2.6620    1.6910   25.0190 N   0  0  0  0  0  0  0  0  0  0  0  0
    2.3290    1.5890   27.4160 O   0  0  0  0  0  0  0  0  0  0  0  0
    3.5800    0.2090   27.2930 C   0  0  0  0  0  0  0  0  0  0  0  0
    4.4770   -0.7080   28.0820 C   0  0  0  0  0  0  0  0  0  0  0  0
    5.9150   -0.6060   26.4100 C   0  0  0  0  0  0  0  0  0  0  0  0
    6.1330   -5.1780   23.5820 C   0  0  0  0  0  0  0  0  0  0  0  0
    6.5890   -5.3570   22.4630 C   0  0  0  0  0  0  0  0  0  0  0  0
  1  2  1  0
  2  3  2  0
  2  4  1  0
  4  5  1  0
  5  6  1  0
  6  7  1  0
  7  8  1  0
  8  9  2  0
  8 10  1  0
 11 10  1  1
 11 12  1  0
 13 12  1  0
 13 14  1  0
 14 15  1  0
 15 16  1  0
 16 17  1  1
 17 18  1  0
 17 19  2  0
 16 20  1  0
 13 21  1  0
 20 21  1  0
 11 22  1  0
 13 22  1  0
  7 23  1  0
  4 24  1  0
 23 24  1  0
M  END
