piperidine-amides-29790-covalent
     RDKit          3D

 27 29  0  0  0  0  0  0  0  0999 V2000
    7.0260   -3.3450   19.3240 C   0  0  0  0  0  0  0  0  0  0  0  0
    6.3200   -4.1980   20.2790 C   0  0  0  0  0  0  0  0  0  0  0  0
    5.3110   -4.8100   19.9520 O   0  0  0  0  0  0  0  0  0  0  0  0
    6.8350   -4.3540   21.6000 N   0  0  0  0  0  0  0  0  0  0  0  0
    7.5960   -3.2860   22.1790 C   0  0  0  0  0  0  0  0  0  0  0  0
    7.3930   -3.2490   23.6510 C   0  0  0  0  0  0  0  0  0  0  0  0
    6.0140   -3.7280   23.9780 C   0  0  0  0  0  0  0  0  0  0  0  0
    5.6260   -3.3290   25.3750 C   0  0  0  0  0  0  0  0  0  0  0  0
    4.5680   -2.7090   25.5790 O   0  0  0  0  0  0  0  0  0  0  0  0
    6.4370   -3.6400   26.5060 N   0  0  0  0  0  0  0  0  0  0  0  0
    6.0500   -2.9720   27.7530 C   0  0  0  0  0  0  0  0  0  0  0  0
    5.8820   -4.0470   28.8190 C   0  0  0  0  0  0  0  0  0  0  0  0
    6.2970   -5.3000   28.5810 N   0  0  0  0  0  0  0  0  0  0  0  0
    5.8170   -6.2760   29.3860 C   0  0  0  0  0  0  0  0  0  0  0  0
    5.0180   -6.1880   30.5250 C   0  0  0  0  0  0  0  0  0  0  0  0
    5.2600   -7.0270   31.6120 C   0  0  0  0  0  0  0  0  0  0  0  0
    4.4120   -6.9120   32.7870 C   0  0  0  0  0  0  0  0  0  0  0  0
    3.3840   -6.0180   32.8750 C   0  0  0  0  0  0  0  0  0  0  0  0
    3.1790   -5.2160   31.7880 C   0  0  0  0  0  0  0  0  0  0  0  0
    3.9640   -5.2900   30.6440 C   0  0  0  0  0  0  0  0  0  0  0  0
    5.8450   -5.5110   27.3480 C   0  0  2  0  0  0  0  0  0  0  0  0
    5.1570   -6.6060   26.8790 C   0  0  0  0  0  0  0  0  0  0  0  0
    3.8120   -6.6070   27.2330 C   0  0  0  0  0  0  0  0  0  0  0  0
    3.4190   -7.4850   28.3780 C   0  0  0  0  0  0  0  0  0  0  0  0
    6.8330   -4.9990   26.5700 C   0  0  0  0  0  0  0  0  0  0  0  0
    5.8860   -5.1780   23.6350 C   0  0  0  0  0  0  0  0  0  0  0  0
    6.5740   -5.5600   22.3590 C   0  0  0  0  0  0  0  0  0  0  0  0
  1  2  1  0
  2  3  2  0
  2  4  1  0
  4  5  1  0
  5  6  1  0
  6  7  1  0
  7  8  1  0
  8  9  2  0
  8 10  1  0
 10 11  1  0
 11 12  1  0
 12 13  1  0
 13 14  1  0
 14 15  1  0
 15 16  2  0
 16 17  1  0
 17 18  2  0
 18 19  1  0
 15 20  1  0
 19 20  2  0
 13 21  1  0
 21 22  1  6
 22 23  1  0
 23 24  1  0
 10 25  1  0
 21 25  1  0
  7 26  1  0
  4 27  1  0
 26 27  1  0
M  END
