piperidine-amides-2629-covalent
     RDKit          3D

 24 26  0  0  0  0  0  0  0  0999 V2000
    7.0900   -3.2690   19.2600 C   0  0  0  0  0  0  0  0  0  0  0  0
    6.3620   -4.0710   20.2770 C   0  0  0  0  0  0  0  0  0  0  0  0
    5.3230   -4.6230   19.9130 O   0  0  0  0  0  0  0  0  0  0  0  0
    6.8810   -4.2130   21.5670 N   0  0  0  0  0  0  0  0  0  0  0  0
    6.6190   -5.3680   22.3730 C   0  0  0  0  0  0  0  0  0  0  0  0
    5.8770   -4.9460   23.6120 C   0  0  0  0  0  0  0  0  0  0  0  0
    6.4950   -3.6760   24.2290 C   0  0  0  0  0  0  0  0  0  0  0  0
    5.5330   -3.1390   25.2240 C   0  0  0  0  0  0  0  0  0  0  0  0
    4.4750   -3.7470   25.4260 O   0  0  0  0  0  0  0  0  0  0  0  0
    5.7720   -1.9470   25.9460 N   0  0  0  0  0  0  0  0  0  0  0  0
    6.7250   -1.9610   27.0230 C   0  0  0  0  0  0  0  0  0  0  0  0
    6.2700   -1.0310   28.1440 C   0  0  0  0  0  0  0  0  0  0  0  0
    6.4110    0.3330   28.0030 C   0  0  0  0  0  0  0  0  0  0  0  0
    7.6270    0.7790   27.5910 C   0  0  0  0  0  0  0  0  0  0  0  0
    8.3300    1.6420   28.4100 C   0  0  0  0  0  0  0  0  0  0  0  0
    8.6680    3.1200   28.2760 C   0  0  0  0  0  0  0  0  0  0  0  0
    9.4910    3.6190   29.4320 C   0  0  0  0  0  0  0  0  0  0  0  0
    9.8960    2.7070   30.5550 C   0  0  0  0  0  0  0  0  0  0  0  0
    9.4650    1.2840   30.5170 C   0  0  0  0  0  0  0  0  0  0  0  0
    8.6530    0.6180   29.4660 C   0  0  0  0  0  0  0  0  0  0  0  0
    8.1870   -0.8150   29.3790 C   0  0  0  0  0  0  0  0  0  0  0  0
    6.7280   -1.1000   29.4200 C   0  0  0  0  0  0  0  0  0  0  0  0
    6.7830   -2.6080   23.1860 C   0  0  0  0  0  0  0  0  0  0  0  0
    7.6020   -3.1290   22.2120 C   0  0  0  0  0  0  0  0  0  0  0  0
  1  2  1  0
  2  3  2  0
  2  4  1  0
  4  5  1  0
  5  6  1  0
  6  7  1  0
  7  8  1  0
  8  9  2  0
  8 10  1  0
 10 11  1  0
 11 12  1  0
 12 13  1  0
 13 14  1  0
 14 15  1  0
 15 16  1  0
 16 17  2  0
 17 18  1  0
 18 19  2  0
 15 20  2  0
 19 20  1  0
 20 21  1  0
 12 22  1  0
 21 22  1  0
  7 23  1  0
  4 24  1  0
 23 24  1  0
M  END
