piperidine-amides-12101-covalent
     RDKit          3D

 25 27  0  0  0  0  0  0  0  0999 V2000
    7.0050   -3.3540   19.3910 C   0  0  0  0  0  0  0  0  0  0  0  0
    6.3170   -4.2390   20.3290 C   0  0  0  0  0  0  0  0  0  0  0  0
    5.3240   -4.8610   19.9680 O   0  0  0  0  0  0  0  0  0  0  0  0
    6.8180   -4.4290   21.6590 N   0  0  0  0  0  0  0  0  0  0  0  0
    6.4740   -5.6200   22.4010 C   0  0  0  0  0  0  0  0  0  0  0  0
    5.7860   -5.2970   23.7140 C   0  0  0  0  0  0  0  0  0  0  0  0
    5.9310   -3.8220   24.0590 C   0  0  0  0  0  0  0  0  0  0  0  0
    5.6020   -3.5670   25.5100 C   0  0  0  0  0  0  0  0  0  0  0  0
    4.5850   -4.0640   26.0190 O   0  0  0  0  0  0  0  0  0  0  0  0
    6.4030   -2.7250   26.3440 N   0  0  0  0  0  0  0  0  0  0  0  0
    6.3700   -1.3350   25.9670 C   0  0  0  0  0  0  0  0  0  0  0  0
    5.6450   -0.4390   26.9030 C   0  0  0  0  0  0  0  0  0  0  0  0
    5.9200    0.5820   26.0670 N   0  0  0  0  0  0  0  0  0  0  0  0
    6.6160    0.3400   24.9490 N   0  0  0  0  0  0  0  0  0  0  0  0
    6.9470    1.3970   23.9770 C   0  0  1  0  0  0  0  0  0  0  0  0
    8.2160    1.1100   23.4490 C   0  0  0  0  0  0  0  0  0  0  0  0
    6.1110    1.1590   22.6810 C   0  0  0  0  0  0  0  0  0  0  0  0
    5.8510   -0.1620   22.1260 C   0  0  0  0  0  0  0  0  0  0  0  0
    5.1370   -0.4210   20.9910 C   0  0  0  0  0  0  0  0  0  0  0  0
    4.5930    0.6050   20.2690 C   0  0  0  0  0  0  0  0  0  0  0  0
    4.7770    1.9180   20.7090 C   0  0  0  0  0  0  0  0  0  0  0  0
    5.5530    2.2040   21.9410 C   0  0  0  0  0  0  0  0  0  0  0  0
    6.9810   -0.9570   24.7980 C   0  0  0  0  0  0  0  0  0  0  0  0
    7.3080   -3.3740   23.7230 C   0  0  0  0  0  0  0  0  0  0  0  0
    7.5310   -3.3740   22.2610 C   0  0  0  0  0  0  0  0  0  0  0  0
  1  2  1  0
  2  3  2  0
  2  4  1  0
  4  5  1  0
  5  6  1  0
  6  7  1  0
  7  8  1  0
  8  9  2  0
  8 10  1  0
 10 11  1  0
 11 12  1  0
 12 13  2  0
 13 14  1  0
 14 15  1  0
 15 16  1  6
 15 17  1  0
 17 18  2  0
 18 19  1  0
 19 20  2  0
 20 21  1  0
 17 22  1  0
 21 22  2  0
 11 23  2  0
 14 23  1  0
  7 24  1  0
  4 25  1  0
 24 25  1  0
M  END
