piperidine-amides-18826-covalent
     RDKit          3D

 21 22  0  0  0  0  0  0  0  0999 V2000
    7.1800   -3.3520   19.1950 C   0  0  0  0  0  0  0  0  0  0  0  0
    6.4120   -4.0190   20.2100 C   0  0  0  0  0  0  0  0  0  0  0  0
    5.2770   -4.4810   19.8770 O   0  0  0  0  0  0  0  0  0  0  0  0
    6.9150   -4.2520   21.5030 N   0  0  0  0  0  0  0  0  0  0  0  0
    6.5480   -5.5080   22.1760 C   0  0  0  0  0  0  0  0  0  0  0  0
    5.4710   -4.9050   23.1390 C   0  0  0  0  0  0  0  0  0  0  0  0
    6.2390   -3.9320   24.0030 C   0  0  0  0  0  0  0  0  0  0  0  0
    5.3600   -3.5080   25.2420 C   0  0  0  0  0  0  0  0  0  0  0  0
    5.3920   -2.3060   25.4440 O   0  0  0  0  0  0  0  0  0  0  0  0
    4.8360   -4.5720   25.6930 N   0  0  0  0  0  0  0  0  0  0  0  0
    4.2750   -5.7810   25.8360 C   0  0  0  0  0  0  0  0  0  0  0  0
    4.0100   -6.0760   27.0230 C   0  0  0  0  0  0  0  0  0  0  0  0
    4.7840   -7.1080   27.5480 O   0  0  0  0  0  0  0  0  0  0  0  0
    4.9010   -7.1430   28.9210 C   0  0  0  0  0  0  0  0  0  0  0  0
    5.8140   -6.0290   29.2620 C   0  0  0  0  0  0  0  0  0  0  0  0
    7.1450   -6.2980   29.1560 O   0  0  0  0  0  0  0  0  0  0  0  0
    5.3260   -4.7950   29.6580 O   0  0  0  0  0  0  0  0  0  0  0  0
    6.0480   -3.6970   29.1480 C   0  0  0  0  0  0  0  0  0  0  0  0
    4.5950   -4.6890   27.2370 C   0  0  0  0  0  0  0  0  0  0  0  0
    6.7740   -2.7210   23.2650 C   0  0  0  0  0  0  0  0  0  0  0  0
    7.7200   -3.2620   22.2050 C   0  0  0  0  0  0  0  0  0  0  0  0
  1  2  1  0
  2  3  2  0
  2  4  1  0
  4  5  1  0
  5  6  1  0
  6  7  1  0
  7  8  1  0
  8  9  2  0
  8 10  1  0
 10 11  1  0
 11 12  1  0
 12 13  1  0
 13 14  1  0
 14 15  1  0
 15 16  2  0
 15 17  1  0
 17 18  1  0
 10 19  1  0
 12 19  1  0
  7 20  1  0
  4 21  1  0
 20 21  1  0
M  END
