piperidine-amides-1344-covalent
     RDKit          3D

 22 23  0  0  0  0  0  0  0  0999 V2000
    7.1160   -3.2800   19.2280 C   0  0  0  0  0  0  0  0  0  0  0  0
    6.3660   -4.0620   20.2490 C   0  0  0  0  0  0  0  0  0  0  0  0
    5.3080   -4.6230   19.9150 O   0  0  0  0  0  0  0  0  0  0  0  0
    6.9020   -4.1860   21.5470 N   0  0  0  0  0  0  0  0  0  0  0  0
    7.6930   -3.1580   22.1860 C   0  0  0  0  0  0  0  0  0  0  0  0
    6.8070   -2.5280   23.2620 C   0  0  0  0  0  0  0  0  0  0  0  0
    6.0660   -3.6390   23.9230 C   0  0  0  0  0  0  0  0  0  0  0  0
    5.7410   -3.3730   25.3430 C   0  0  0  0  0  0  0  0  0  0  0  0
    4.6700   -2.7840   25.5450 O   0  0  0  0  0  0  0  0  0  0  0  0
    6.6040   -3.7630   26.3760 N   0  0  0  0  0  0  0  0  0  0  0  0
    6.7830   -5.0650   26.9290 C   0  0  0  0  0  0  0  0  0  0  0  0
    5.7950   -5.8050   27.5290 C   0  0  1  0  0  0  0  0  0  0  0  0
    5.1140   -4.8450   28.3820 O   0  0  0  0  0  0  0  0  0  0  0  0
    4.7840   -6.4670   26.8120 C   0  0  0  0  0  0  0  0  0  0  0  0
    4.6820   -6.3890   25.4440 C   0  0  0  0  0  0  0  0  0  0  0  0
    3.6400   -7.0700   24.6500 C   0  0  0  0  0  0  0  0  0  0  0  0
    2.5750   -7.9240   25.3180 C   0  0  0  0  0  0  0  0  0  0  0  0
    1.6100   -8.5430   24.5060 F   0  0  0  0  0  0  0  0  0  0  0  0
    2.8180   -7.9110   26.8280 C   0  0  0  0  0  0  0  0  0  0  0  0
    3.8440   -7.2310   27.4740 C   0  0  0  0  0  0  0  0  0  0  0  0
    6.7040   -4.9750   23.7610 C   0  0  0  0  0  0  0  0  0  0  0  0
    6.6490   -5.3880   22.3060 C   0  0  0  0  0  0  0  0  0  0  0  0
  1  2  1  0
  2  3  2  0
  2  4  1  0
  4  5  1  0
  5  6  1  0
  6  7  1  0
  7  8  1  0
  8  9  2  0
  8 10  1  0
 10 11  1  0
 11 12  1  0
 12 13  1  1
 12 14  1  0
 14 15  2  0
 15 16  1  0
 16 17  2  0
 17 18  1  0
 17 19  1  0
 14 20  1  0
 19 20  2  0
  7 21  1  0
  4 22  1  0
 21 22  1  0
M  END
