piperidine-amides-1546-covalent
     RDKit          3D

 22 23  0  0  0  0  0  0  0  0999 V2000
    7.0950   -3.2510   19.2120 C   0  0  0  0  0  0  0  0  0  0  0  0
    6.3200   -4.0130   20.2270 C   0  0  0  0  0  0  0  0  0  0  0  0
    5.2650   -4.5720   19.8860 O   0  0  0  0  0  0  0  0  0  0  0  0
    6.8230   -4.1300   21.5350 N   0  0  0  0  0  0  0  0  0  0  0  0
    7.5910   -3.0980   22.1940 C   0  0  0  0  0  0  0  0  0  0  0  0
    6.8100   -2.6340   23.4330 C   0  0  0  0  0  0  0  0  0  0  0  0
    5.5240   -3.4200   23.5140 C   0  0  0  0  0  0  0  0  0  0  0  0
    4.6350   -3.0910   24.6680 C   0  0  0  0  0  0  0  0  0  0  0  0
    3.4330   -3.1760   24.4420 O   0  0  0  0  0  0  0  0  0  0  0  0
    5.0940   -2.7240   25.9350 N   0  0  0  0  0  0  0  0  0  0  0  0
    5.4100   -3.6120   26.9770 C   0  0  1  0  0  0  0  0  0  0  0  0
    4.8430   -4.8250   27.2910 C   0  0  0  0  0  0  0  0  0  0  0  0
    6.7090   -4.0840   26.5610 C   0  0  0  0  0  0  0  0  0  0  0  0
    6.9850   -4.2330   25.2410 C   0  0  0  0  0  0  0  0  0  0  0  0
    8.2650   -4.7000   24.7480 C   0  0  0  0  0  0  0  0  0  0  0  0
    9.3050   -5.0260   25.7730 C   0  0  0  0  0  0  0  0  0  0  0  0
   10.5590   -5.4740   25.4930 F   0  0  0  0  0  0  0  0  0  0  0  0
    8.8140   -4.8050   27.1200 C   0  0  0  0  0  0  0  0  0  0  0  0
    9.9350   -5.1570   28.2460 Cl  0  0  0  0  0  0  0  0  0  0  0  0
    7.6160   -4.3700   27.4650 C   0  0  0  0  0  0  0  0  0  0  0  0
    5.6320   -4.9200   23.4250 C   0  0  0  0  0  0  0  0  0  0  0  0
    6.5180   -5.3270   22.2730 C   0  0  0  0  0  0  0  0  0  0  0  0
  1  2  1  0
  2  3  2  0
  2  4  1  0
  4  5  1  0
  5  6  1  0
  6  7  1  0
  7  8  1  0
  8  9  2  0
  8 10  1  0
 10 11  1  0
 11 12  1  6
 11 13  1  0
 13 14  2  0
 14 15  1  0
 15 16  2  0
 16 17  1  0
 16 18  1  0
 18 19  1  0
 13 20  1  0
 18 20  2  0
  7 21  1  0
  4 22  1  0
 21 22  1  0
M  END
