piperidine-amides-31689-covalent
     RDKit          3D

 27 29  0  0  0  0  0  0  0  0999 V2000
    7.1130   -3.4340   19.3640 C   0  0  0  0  0  0  0  0  0  0  0  0
    6.4280   -4.2120   20.3620 C   0  0  0  0  0  0  0  0  0  0  0  0
    5.3740   -4.8180   19.9920 O   0  0  0  0  0  0  0  0  0  0  0  0
    6.9170   -4.3850   21.6810 N   0  0  0  0  0  0  0  0  0  0  0  0
    7.8780   -3.4220   22.2620 C   0  0  0  0  0  0  0  0  0  0  0  0
    6.8920   -2.6100   23.1610 C   0  0  0  0  0  0  0  0  0  0  0  0
    6.3010   -3.5920   24.1510 C   0  0  0  0  0  0  0  0  0  0  0  0
    5.2490   -2.8160   25.0540 C   0  0  0  0  0  0  0  0  0  0  0  0
    4.5150   -2.1140   24.3880 O   0  0  0  0  0  0  0  0  0  0  0  0
    5.4420   -3.1420   26.2450 N   0  0  0  0  0  0  0  0  0  0  0  0
    5.6000   -4.0360   27.2620 C   0  0  0  0  0  0  0  0  0  0  0  0
    5.5690   -1.8810   26.9350 C   0  0  0  0  0  0  0  0  0  0  0  0
    5.8880   -0.7450   26.2470 C   0  0  0  0  0  0  0  0  0  0  0  0
    6.0640    0.5510   26.8750 C   0  0  0  0  0  0  0  0  0  0  0  0
    5.8520    0.5040   28.4230 C   0  0  0  0  0  0  0  0  0  0  0  0
    5.5040   -0.6970   29.1620 C   0  0  0  0  0  0  0  0  0  0  0  0
    5.1730   -1.9670   29.6620 C   0  0  0  0  0  0  0  0  0  0  0  0
    6.2730   -2.7000   29.8860 O   0  0  0  0  0  0  0  0  0  0  0  0
    3.9490   -2.4570   29.9130 N   0  0  0  0  0  0  0  0  0  0  0  0
    3.7150   -3.8310   30.3290 C   0  0  0  0  0  0  0  0  0  0  0  0
    2.8090   -4.5500   31.1670 N   0  0  0  0  0  0  0  0  0  0  0  0
    3.0240   -5.9050   31.2250 N   0  0  0  0  0  0  0  0  0  0  0  0
    4.1580   -6.3700   30.4050 C   0  0  0  0  0  0  0  0  0  0  0  0
    4.7790   -4.9450   29.6750 S   0  0  0  0  0  0  0  0  0  0  0  0
    5.4200   -1.7260   28.2260 N   0  0  0  0  0  0  0  0  0  0  0  0
    5.6140   -4.8150   23.4870 C   0  0  0  0  0  0  0  0  0  0  0  0
    6.4310   -5.4150   22.5630 C   0  0  0  0  0  0  0  0  0  0  0  0
  1  2  1  0
  2  3  2  0
  2  4  1  0
  4  5  1  0
  5  6  1  0
  6  7  1  0
  7  8  1  0
  8  9  2  0
  8 10  1  0
 10 11  1  0
 10 12  1  0
 12 13  2  0
 13 14  1  0
 14 15  2  0
 15 16  1  0
 16 17  1  0
 17 18  2  0
 17 19  1  0
 19 20  1  0
 20 21  2  0
 21 22  1  0
 22 23  2  0
 20 24  1  0
 23 24  1  0
 12 25  1  0
 16 25  2  0
  7 26  1  0
  4 27  1  0
 26 27  1  0
M  END
