piperidine-amides-10914-covalent
     RDKit          3D

 21 22  0  0  0  0  0  0  0  0999 V2000
    7.1060   -3.2830   19.2360 C   0  0  0  0  0  0  0  0  0  0  0  0
    6.3700   -4.0550   20.2430 C   0  0  0  0  0  0  0  0  0  0  0  0
    5.3090   -4.6080   19.9090 O   0  0  0  0  0  0  0  0  0  0  0  0
    6.8510   -4.2400   21.5540 N   0  0  0  0  0  0  0  0  0  0  0  0
    6.5780   -5.4310   22.3150 C   0  0  0  0  0  0  0  0  0  0  0  0
    5.8570   -4.9560   23.5530 C   0  0  0  0  0  0  0  0  0  0  0  0
    6.5340   -3.7930   24.2320 C   0  0  0  0  0  0  0  0  0  0  0  0
    5.7230   -3.2390   25.3490 C   0  0  0  0  0  0  0  0  0  0  0  0
    4.6980   -2.5420   25.0900 O   0  0  0  0  0  0  0  0  0  0  0  0
    6.0120   -3.4390   26.7180 N   0  0  0  0  0  0  0  0  0  0  0  0
    5.9850   -4.8030   27.3030 C   0  0  0  0  0  0  0  0  0  0  0  0
    4.6360   -5.1580   27.7220 C   0  0  1  0  0  0  0  0  0  0  0  0
    3.6570   -5.4350   26.6520 C   0  0  0  0  0  0  0  0  0  0  0  0
    2.4990   -5.3830   27.1130 O   0  0  0  0  0  0  0  0  0  0  0  0
    4.6600   -6.4340   28.5200 C   0  0  0  0  0  0  0  0  0  0  0  0
    4.9380   -6.1520   29.9800 C   0  0  0  0  0  0  0  0  0  0  0  0
    3.6550   -6.1910   30.6460 C   0  0  0  0  0  0  0  0  0  0  0  0
    4.1840   -7.2170   31.3090 C   0  0  0  0  0  0  0  0  0  0  0  0
    5.4950   -7.2200   30.7170 C   0  0  0  0  0  0  0  0  0  0  0  0
    6.8500   -2.6240   23.2880 C   0  0  0  0  0  0  0  0  0  0  0  0
    7.6810   -3.2180   22.1520 C   0  0  0  0  0  0  0  0  0  0  0  0
  1  2  1  0
  2  3  2  0
  2  4  1  0
  4  5  1  0
  5  6  1  0
  6  7  1  0
  7  8  1  0
  8  9  2  0
  8 10  1  0
 10 11  1  0
 12 11  1  6
 12 13  1  0
 13 14  1  0
 12 15  1  0
 15 16  1  0
 16 17  1  0
 17 18  1  0
 16 19  1  0
 18 19  1  0
  7 20  1  0
  4 21  1  0
 20 21  1  0
M  END
