piperidine-amides-19771-covalent
     RDKit          3D

 21 23  0  0  0  0  0  0  0  0999 V2000
    7.0220   -3.3440   19.3320 C   0  0  0  0  0  0  0  0  0  0  0  0
    6.3380   -4.2100   20.3300 C   0  0  0  0  0  0  0  0  0  0  0  0
    5.3280   -4.7970   19.9560 O   0  0  0  0  0  0  0  0  0  0  0  0
    6.8510   -4.3800   21.6160 N   0  0  0  0  0  0  0  0  0  0  0  0
    6.5860   -5.5820   22.3700 C   0  0  0  0  0  0  0  0  0  0  0  0
    5.6780   -5.2510   23.5160 C   0  0  0  0  0  0  0  0  0  0  0  0
    5.9410   -3.8090   23.9460 C   0  0  0  0  0  0  0  0  0  0  0  0
    5.4990   -3.6530   25.3520 C   0  0  0  0  0  0  0  0  0  0  0  0
    4.3220   -3.3450   25.5740 O   0  0  0  0  0  0  0  0  0  0  0  0
    6.3400   -3.8500   26.4600 N   0  0  0  0  0  0  0  0  0  0  0  0
    7.0390   -5.1130   26.5090 C   0  0  0  0  0  0  0  0  0  0  0  0
    7.0800   -5.3070   27.9780 C   0  0  0  0  0  0  0  0  0  0  0  0
    6.3730   -4.3500   28.6200 C   0  0  0  0  0  0  0  0  0  0  0  0
    5.8700   -3.4190   27.7600 C   0  0  2  0  0  0  0  0  0  0  0  0
    4.5240   -3.2150   27.9010 C   0  0  0  0  0  0  0  0  0  0  0  0
    3.7080   -1.9100   27.9800 C   0  0  0  0  0  0  0  0  0  0  0  0
    2.2460   -2.2660   28.1370 C   0  0  0  0  0  0  0  0  0  0  0  0
    1.9660   -3.9330   28.1780 S   0  0  0  0  0  0  0  0  0  0  0  0
    3.6680   -4.4350   28.0000 C   0  0  0  0  0  0  0  0  0  0  0  0
    7.2880   -3.3150   23.6760 C   0  0  0  0  0  0  0  0  0  0  0  0
    7.6130   -3.3220   22.2270 C   0  0  0  0  0  0  0  0  0  0  0  0
  1  2  1  0
  2  3  2  0
  2  4  1  0
  4  5  1  0
  5  6  1  0
  6  7  1  0
  7  8  1  0
  8  9  2  0
  8 10  1  0
 10 11  1  0
 11 12  1  0
 12 13  1  0
 10 14  1  0
 13 14  1  0
 14 15  1  6
 15 16  1  0
 16 17  2  0
 17 18  1  0
 15 19  2  0
 18 19  1  0
  7 20  1  0
  4 21  1  0
 20 21  1  0
M  END
