piperidine-amides-10325-covalent
     RDKit          3D

 24 26  0  0  0  0  0  0  0  0999 V2000
    7.0680   -3.3270   19.2890 C   0  0  0  0  0  0  0  0  0  0  0  0
    6.3910   -4.1450   20.2990 C   0  0  0  0  0  0  0  0  0  0  0  0
    5.3310   -4.7210   19.9430 O   0  0  0  0  0  0  0  0  0  0  0  0
    6.9530   -4.2980   21.5650 N   0  0  0  0  0  0  0  0  0  0  0  0
    7.7460   -3.2610   22.1840 C   0  0  0  0  0  0  0  0  0  0  0  0
    6.9990   -2.7540   23.3770 C   0  0  0  0  0  0  0  0  0  0  0  0
    6.5140   -3.8800   24.2430 C   0  0  0  0  0  0  0  0  0  0  0  0
    5.7850   -3.3310   25.4050 C   0  0  0  0  0  0  0  0  0  0  0  0
    4.5590   -3.1070   25.2800 O   0  0  0  0  0  0  0  0  0  0  0  0
    6.4020   -3.0570   26.6360 N   0  0  0  0  0  0  0  0  0  0  0  0
    6.3850   -1.7410   27.2270 C   0  0  0  0  0  0  0  0  0  0  0  0
    7.0310   -1.5500   28.5800 C   0  0  0  0  0  0  0  0  0  0  0  0
    7.0610   -0.3600   29.2250 C   0  0  0  0  0  0  0  0  0  0  0  0
    6.4870    0.7450   28.6480 C   0  0  0  0  0  0  0  0  0  0  0  0
    5.8420    0.8110   27.4160 C   0  0  0  0  0  0  0  0  0  0  0  0
    5.2750    1.9520   26.8720 C   0  0  0  0  0  0  0  0  0  0  0  0
    4.1980    2.5720   27.3890 C   0  0  0  0  0  0  0  0  0  0  0  0
    4.0660    3.5490   26.5440 N   0  0  0  0  0  0  0  0  0  0  0  0
    3.0870    4.4470   26.6760 C   0  0  0  0  0  0  0  0  0  0  0  0
    4.9390    3.6250   25.5400 N   0  0  0  0  0  0  0  0  0  0  0  0
    5.7600    2.5490   25.7520 N   0  0  0  0  0  0  0  0  0  0  0  0
    5.7970   -0.5040   26.6780 C   0  0  0  0  0  0  0  0  0  0  0  0
    5.6550   -4.8810   23.4560 C   0  0  0  0  0  0  0  0  0  0  0  0
    6.5700   -5.4390   22.3820 C   0  0  0  0  0  0  0  0  0  0  0  0
  1  2  1  0
  2  3  2  0
  2  4  1  0
  4  5  1  0
  5  6  1  0
  6  7  1  0
  7  8  1  0
  8  9  2  0
  8 10  1  0
 10 11  1  0
 11 12  2  0
 12 13  1  0
 13 14  2  0
 14 15  1  0
 15 16  1  0
 16 17  2  0
 17 18  1  0
 18 19  1  0
 18 20  1  0
 16 21  1  0
 20 21  2  0
 11 22  1  0
 15 22  2  0
  7 23  1  0
  4 24  1  0
 23 24  1  0
M  END
