piperidine-amides-24203-covalent
     RDKit          3D

 23 24  0  0  0  0  0  0  0  0999 V2000
    7.0930   -3.3180   19.3130 C   0  0  0  0  0  0  0  0  0  0  0  0
    6.3720   -4.1570   20.2810 C   0  0  0  0  0  0  0  0  0  0  0  0
    5.3290   -4.7610   19.9520 O   0  0  0  0  0  0  0  0  0  0  0  0
    6.8710   -4.3310   21.5700 N   0  0  0  0  0  0  0  0  0  0  0  0
    7.6990   -3.2990   22.1660 C   0  0  0  0  0  0  0  0  0  0  0  0
    6.9390   -2.7750   23.3700 C   0  0  0  0  0  0  0  0  0  0  0  0
    6.6290   -3.9790   24.2270 C   0  0  0  0  0  0  0  0  0  0  0  0
    5.8530   -3.4950   25.3680 C   0  0  0  0  0  0  0  0  0  0  0  0
    4.6030   -3.4780   25.3060 O   0  0  0  0  0  0  0  0  0  0  0  0
    6.5620   -3.0460   26.4980 N   0  0  0  0  0  0  0  0  0  0  0  0
    6.6830   -3.8700   27.6700 C   0  0  0  0  0  0  0  0  0  0  0  0
    8.0880   -4.4200   27.7110 C   0  0  0  0  0  0  0  0  0  0  0  0
    8.3250   -5.7550   27.8220 C   0  0  0  0  0  0  0  0  0  0  0  0
    6.6590   -1.8240   27.2490 C   0  0  0  0  0  0  0  0  0  0  0  0
    7.5890   -1.4660   28.6660 S   0  0  0  0  0  0  0  0  0  0  0  0
    7.0450    0.1580   28.7490 N   0  0  0  0  0  0  0  0  0  0  0  0
    6.1280    0.7220   27.8270 C   0  0  0  0  0  0  0  0  0  0  0  0
    6.5990    1.5170   28.8490 C   0  0  0  0  0  0  0  0  0  0  0  0
    6.0050   -0.6100   26.9940 C   0  0  0  0  0  0  0  0  0  0  0  0
    5.0860   -0.5750   25.7940 C   0  0  0  0  0  0  0  0  0  0  0  0
    4.3090    0.5320   25.9490 N   0  0  0  0  0  0  0  0  0  0  0  0
    5.8500   -5.0380   23.5470 C   0  0  0  0  0  0  0  0  0  0  0  0
    6.5130   -5.4800   22.3260 C   0  0  0  0  0  0  0  0  0  0  0  0
  1  2  1  0
  2  3  2  0
  2  4  1  0
  4  5  1  0
  5  6  1  0
  6  7  1  0
  7  8  1  0
  8  9  2  0
  8 10  1  0
 10 11  1  0
 11 12  1  0
 12 13  1  0
 10 14  1  0
 14 15  1  0
 15 16  1  0
 16 17  2  0
 17 18  1  0
 14 19  2  0
 17 19  1  0
 19 20  1  0
 20 21  3  0
  7 22  1  0
  4 23  1  0
 22 23  1  0
M  END
