piperidine-amides-27272-covalent
     RDKit          3D

 25 26  0  0  0  0  0  0  0  0999 V2000
    7.0540   -3.3440   19.3570 C   0  0  0  0  0  0  0  0  0  0  0  0
    6.3880   -4.2080   20.3360 C   0  0  0  0  0  0  0  0  0  0  0  0
    5.3210   -4.7490   19.9520 O   0  0  0  0  0  0  0  0  0  0  0  0
    6.9510   -4.4660   21.5940 N   0  0  0  0  0  0  0  0  0  0  0  0
    6.5770   -5.6500   22.3320 C   0  0  0  0  0  0  0  0  0  0  0  0
    5.8930   -5.2050   23.5950 C   0  0  0  0  0  0  0  0  0  0  0  0
    6.6500   -4.0960   24.2730 C   0  0  0  0  0  0  0  0  0  0  0  0
    5.8270   -3.4980   25.3380 C   0  0  0  0  0  0  0  0  0  0  0  0
    4.5840   -3.4560   25.1840 O   0  0  0  0  0  0  0  0  0  0  0  0
    6.3720   -2.9680   26.5140 N   0  0  0  0  0  0  0  0  0  0  0  0
    6.5180   -3.8320   27.6700 C   0  0  0  0  0  0  0  0  0  0  0  0
    6.3930   -1.5200   26.6280 C   0  0  0  0  0  0  0  0  0  0  0  0
    5.9960   -0.8920   25.4530 C   0  0  0  0  0  0  0  0  0  0  0  0
    6.5260    0.3370   25.1930 N   0  0  0  0  0  0  0  0  0  0  0  0
    6.2190    0.9870   24.0440 C   0  0  0  0  0  0  0  0  0  0  0  0
    5.0170    1.4960   23.9200 O   0  0  0  0  0  0  0  0  0  0  0  0
    7.0910    1.1790   22.9750 O   0  0  0  0  0  0  0  0  0  0  0  0
    6.9560    0.5470   21.7170 C   0  0  0  0  0  0  0  0  0  0  0  0
    5.5880    0.4050   21.5520 C   0  0  0  0  0  0  0  0  0  0  0  0
    7.5550   -0.6830   21.6220 C   0  0  0  0  0  0  0  0  0  0  0  0
    7.5290    1.4140   20.8090 C   0  0  0  0  0  0  0  0  0  0  0  0
    6.8860   -0.8300   27.8670 C   0  0  0  0  0  0  0  0  0  0  0  0
    5.5740   -0.8660   27.6080 C   0  0  0  0  0  0  0  0  0  0  0  0
    6.9770   -2.9940   23.3020 C   0  0  0  0  0  0  0  0  0  0  0  0
    7.7760   -3.4980   22.3170 C   0  0  0  0  0  0  0  0  0  0  0  0
  1  2  1  0
  2  3  2  0
  2  4  1  0
  4  5  1  0
  5  6  1  0
  6  7  1  0
  7  8  1  0
  8  9  2  0
  8 10  1  0
 10 11  1  0
 12 10  1  0
 12 13  1  0
 13 14  1  0
 14 15  1  0
 15 16  2  0
 15 17  1  0
 18 17  1  0
 18 19  1  0
 18 20  1  0
 18 21  1  0
 12 22  1  0
 12 23  1  0
 22 23  1  0
  7 24  1  0
  4 25  1  0
 24 25  1  0
M  END
