piperidine-amides-31862-covalent
     RDKit          3D

 27 29  0  0  0  0  0  0  0  0999 V2000
    7.0990   -3.3750   19.2630 C   0  0  0  0  0  0  0  0  0  0  0  0
    6.3700   -4.0880   20.2910 C   0  0  0  0  0  0  0  0  0  0  0  0
    5.3090   -4.6890   19.9370 O   0  0  0  0  0  0  0  0  0  0  0  0
    6.8020   -4.1970   21.6320 N   0  0  0  0  0  0  0  0  0  0  0  0
    7.7100   -3.1530   22.1740 C   0  0  0  0  0  0  0  0  0  0  0  0
    6.7770   -2.5380   23.2660 C   0  0  0  0  0  0  0  0  0  0  0  0
    6.7050   -3.6280   24.2910 C   0  0  0  0  0  0  0  0  0  0  0  0
    5.4960   -3.3680   25.2770 C   0  0  0  0  0  0  0  0  0  0  0  0
    4.4490   -3.7410   24.7750 O   0  0  0  0  0  0  0  0  0  0  0  0
    5.9070   -2.8210   26.3510 N   0  0  0  0  0  0  0  0  0  0  0  0
    6.2780   -1.8550   27.2330 C   0  0  0  0  0  0  0  0  0  0  0  0
    6.9770   -1.6900   28.4310 C   0  0  0  0  0  0  0  0  0  0  0  0
    7.1960   -0.4750   29.1780 C   0  0  0  0  0  0  0  0  0  0  0  0
    7.9550   -0.4560   30.4390 C   0  0  0  0  0  0  0  0  0  0  0  0
    6.6330    0.8300   28.6650 C   0  0  0  0  0  0  0  0  0  0  0  0
    5.9590    0.6640   27.4900 C   0  0  0  0  0  0  0  0  0  0  0  0
    5.2310    1.3220   26.4880 C   0  0  0  0  0  0  0  0  0  0  0  0
    5.7510   -0.5760   26.7550 C   0  0  0  0  0  0  0  0  0  0  0  0
    5.7470   -3.6930   27.4920 C   0  0  2  0  0  0  0  0  0  0  0  0
    5.0900   -4.8400   27.1130 C   0  0  0  0  0  0  0  0  0  0  0  0
    3.9660   -5.2320   27.6660 C   0  0  0  0  0  0  0  0  0  0  0  0
    3.4370   -4.2160   28.8340 S   0  0  0  0  0  0  0  0  0  0  0  0
    2.1190   -3.6280   28.5320 O   0  0  0  0  0  0  0  0  0  0  0  0
    3.5180   -4.8960   30.1650 O   0  0  0  0  0  0  0  0  0  0  0  0
    4.7490   -3.1020   28.5660 C   0  0  0  0  0  0  0  0  0  0  0  0
    6.7820   -5.0460   23.7960 C   0  0  0  0  0  0  0  0  0  0  0  0
    6.2830   -5.2170   22.5000 C   0  0  0  0  0  0  0  0  0  0  0  0
  1  2  1  0
  2  3  2  0
  2  4  1  0
  4  5  1  0
  5  6  1  0
  6  7  1  0
  7  8  1  0
  8  9  2  0
  8 10  1  0
 10 11  1  0
 11 12  2  0
 12 13  1  0
 13 14  1  0
 13 15  2  0
 15 16  1  0
 16 17  1  0
 11 18  1  0
 16 18  2  0
 19 10  1  6
 19 20  1  0
 20 21  2  0
 22 21  1  0
 22 23  2  0
 22 24  2  0
 19 25  1  0
 22 25  1  0
  7 26  1  0
  4 27  1  0
 26 27  1  0
M  END
