piperidine-amides-3864-covalent
     RDKit          3D

 26 28  0  0  0  0  0  0  0  0999 V2000
    7.0840   -3.3340   19.3280 C   0  0  0  0  0  0  0  0  0  0  0  0
    6.3530   -4.0980   20.3500 C   0  0  0  0  0  0  0  0  0  0  0  0
    5.3230   -4.6940   19.9480 O   0  0  0  0  0  0  0  0  0  0  0  0
    6.8190   -4.2030   21.6990 N   0  0  0  0  0  0  0  0  0  0  0  0
    6.5330   -5.3870   22.4360 C   0  0  0  0  0  0  0  0  0  0  0  0
    6.0270   -5.0820   23.7670 C   0  0  0  0  0  0  0  0  0  0  0  0
    6.0440   -3.6310   24.0160 C   0  0  0  0  0  0  0  0  0  0  0  0
    5.4840   -3.2420   25.3750 C   0  0  0  0  0  0  0  0  0  0  0  0
    4.2870   -2.9120   25.4120 O   0  0  0  0  0  0  0  0  0  0  0  0
    6.2130   -3.2130   26.5950 N   0  0  0  0  0  0  0  0  0  0  0  0
    6.1910   -4.1340   27.6960 C   0  0  0  0  0  0  0  0  0  0  0  0
    5.2780   -4.1590   28.8340 C   0  0  2  0  0  0  0  0  0  0  0  0
    5.4730   -5.5780   29.4170 C   0  0  0  0  0  0  0  0  0  0  0  0
    4.8240   -6.5970   28.7460 C   0  0  0  0  0  0  0  0  0  0  0  0
    3.4720   -6.0550   29.2070 C   0  0  0  0  0  0  0  0  0  0  0  0
    3.1540   -4.8670   28.4780 N   0  0  0  0  0  0  0  0  0  0  0  0
    1.6960   -4.8390   28.2760 C   0  0  0  0  0  0  0  0  0  0  0  0
    3.8630   -3.7590   28.7540 C   0  0  1  0  0  0  0  0  0  0  0  0
    3.4590   -3.0050   30.0050 C   0  0  0  0  0  0  0  0  0  0  0  0
    2.2560   -3.4550   30.7410 C   0  0  0  0  0  0  0  0  0  0  0  0
    2.0800   -2.5640   31.9120 C   0  0  0  0  0  0  0  0  0  0  0  0
    3.0910   -1.6760   31.8590 N   0  0  0  0  0  0  0  0  0  0  0  0
    3.8960   -1.9190   30.7640 N   0  0  0  0  0  0  0  0  0  0  0  0
    5.0390   -1.1350   30.4640 C   0  0  0  0  0  0  0  0  0  0  0  0
    7.3610   -3.0160   23.6700 C   0  0  0  0  0  0  0  0  0  0  0  0
    7.6130   -3.1420   22.2960 C   0  0  0  0  0  0  0  0  0  0  0  0
  1  2  1  0
  2  3  2  0
  2  4  1  0
  4  5  1  0
  5  6  1  0
  6  7  1  0
  7  8  1  0
  8  9  2  0
  8 10  1  0
 10 11  1  0
 12 11  1  6
 12 13  1  0
 13 14  1  0
 14 15  1  0
 15 16  1  0
 16 17  1  0
 12 18  1  0
 16 18  1  0
 18 19  1  1
 19 20  2  0
 20 21  1  0
 21 22  2  0
 19 23  1  0
 22 23  1  0
 23 24  1  0
  7 25  1  0
  4 26  1  0
 25 26  1  0
M  END
