piperidine-amides-18908-covalent
     RDKit          3D

 21 22  0  0  0  0  0  0  0  0999 V2000
    7.0890   -3.4200   19.2840 C   0  0  0  0  0  0  0  0  0  0  0  0
    6.4480   -4.1990   20.3150 C   0  0  0  0  0  0  0  0  0  0  0  0
    5.3970   -4.8380   19.9940 O   0  0  0  0  0  0  0  0  0  0  0  0
    6.9920   -4.3160   21.6130 N   0  0  0  0  0  0  0  0  0  0  0  0
    6.6350   -5.5080   22.4060 C   0  0  0  0  0  0  0  0  0  0  0  0
    5.6910   -4.8480   23.4890 C   0  0  0  0  0  0  0  0  0  0  0  0
    6.4410   -3.6750   24.1060 C   0  0  0  0  0  0  0  0  0  0  0  0
    5.6370   -3.2140   25.3900 C   0  0  0  0  0  0  0  0  0  0  0  0
    4.7350   -2.4450   25.1040 O   0  0  0  0  0  0  0  0  0  0  0  0
    6.1590   -3.7880   26.3720 N   0  0  0  0  0  0  0  0  0  0  0  0
    6.8400   -4.6680   27.0860 C   0  0  0  0  0  0  0  0  0  0  0  0
    6.5100   -5.7250   27.8170 C   0  0  1  0  0  0  0  0  0  0  0  0
    7.3940   -5.9080   28.8560 C   0  0  0  0  0  0  0  0  0  0  0  0
    6.6290   -6.2570   29.9860 O   0  0  0  0  0  0  0  0  0  0  0  0
    5.3370   -5.5070   28.4530 O   0  0  0  0  0  0  0  0  0  0  0  0
    4.8840   -4.1940   28.3300 C   0  0  0  0  0  0  0  0  0  0  0  0
    3.9840   -3.5350   29.3880 C   0  0  0  0  0  0  0  0  0  0  0  0
    3.3970   -4.0460   27.9630 C   0  0  0  0  0  0  0  0  0  0  0  0
    5.7940   -3.1980   27.6380 C   0  0  0  0  0  0  0  0  0  0  0  0
    6.9280   -2.6450   23.2390 C   0  0  0  0  0  0  0  0  0  0  0  0
    7.8350   -3.3760   22.2280 C   0  0  0  0  0  0  0  0  0  0  0  0
  1  2  1  0
  2  3  2  0
  2  4  1  0
  4  5  1  0
  5  6  1  0
  6  7  1  0
  7  8  1  0
  8  9  2  0
  8 10  1  0
 10 11  1  0
 11 12  1  0
 12 13  1  1
 13 14  1  0
 12 15  1  0
 15 16  1  0
 16 17  1  0
 16 18  1  0
 10 19  1  0
 16 19  1  0
  7 20  1  0
  4 21  1  0
 20 21  1  0
M  END
