piperidine-amides-35676-covalent
     RDKit          3D

 39 41  0  0  0  0  0  0  0  0999 V2000
    7.0850   -3.2670   19.1860 C   0  0  0  0  0  0  0  0  0  0  0  0
    6.3650   -4.0440   20.2260 C   0  0  0  0  0  0  0  0  0  0  0  0
    5.3020   -4.5670   19.8940 O   0  0  0  0  0  0  0  0  0  0  0  0
    6.9230   -4.2060   21.4950 N   0  0  0  0  0  0  0  0  0  0  0  0
    7.6920   -3.1770   22.1400 C   0  0  0  0  0  0  0  0  0  0  0  0
    6.9210   -2.6940   23.3260 C   0  0  0  0  0  0  0  0  0  0  0  0
    6.6690   -3.8580   24.2930 C   0  0  0  0  0  0  0  0  0  0  0  0
    5.8610   -3.3060   25.3970 C   0  0  0  0  0  0  0  0  0  0  0  0
    4.6460   -3.1190   25.2260 O   0  0  0  0  0  0  0  0  0  0  0  0
    6.4510   -2.9620   26.6330 N   0  0  0  0  0  0  0  0  0  0  0  0
    6.3890   -3.9140   27.7330 C   0  0  0  0  0  0  0  0  0  0  0  0
    6.5200   -5.3260   27.1940 C   0  0  0  0  0  0  0  0  0  0  0  0
    7.6140   -6.0640   27.5930 O   0  0  0  0  0  0  0  0  0  0  0  0
    5.4420   -5.7300   26.2720 N   0  0  0  0  0  0  0  0  0  0  0  0
    4.3280   -6.2850   27.0590 C   0  0  0  0  0  0  0  0  0  0  0  0
    3.0950   -6.2300   26.4040 C   0  0  0  0  0  0  0  0  0  0  0  0
    1.8270   -6.6650   26.8510 C   0  0  0  0  0  0  0  0  0  0  0  0
    0.5260   -6.4240   25.7720 S   0  0  0  0  0  0  0  0  0  0  0  0
    0.7570   -5.1280   25.0510 O   0  0  0  0  0  0  0  0  0  0  0  0
   -0.7850   -6.3720   26.5080 O   0  0  0  0  0  0  0  0  0  0  0  0
    0.5010   -7.6930   24.5720 N   0  0  0  0  0  0  0  0  0  0  0  0
    0.8320   -8.9950   25.1580 C   0  0  0  0  0  0  0  0  0  0  0  0
    2.2630   -9.2590   25.4860 C   0  0  0  0  0  0  0  0  0  0  0  0
    1.0540   -7.4570   23.2840 C   0  0  0  0  0  0  0  0  0  0  0  0
    0.6330   -6.1040   22.8150 C   0  0  0  0  0  0  0  0  0  0  0  0
    1.8540   -7.2730   28.2300 C   0  0  0  0  0  0  0  0  0  0  0  0
    3.1210   -7.3700   29.0000 C   0  0  0  0  0  0  0  0  0  0  0  0
    4.3800   -6.8900   28.4650 C   0  0  0  0  0  0  0  0  0  0  0  0
    5.8620   -7.0070   29.4020 Cl  0  0  0  0  0  0  0  0  0  0  0  0
    6.5580   -1.6000   27.1470 C   0  0  0  0  0  0  0  0  0  0  0  0
    5.6730   -1.2070   28.1350 C   0  0  0  0  0  0  0  0  0  0  0  0
    5.5790   -1.9700   29.4470 C   0  0  0  0  0  0  0  0  0  0  0  0
    4.6110   -1.5470   30.5370 C   0  0  0  0  0  0  0  0  0  0  0  0
    3.7450   -0.3500   30.2840 C   0  0  0  0  0  0  0  0  0  0  0  0
    3.8400    0.3200   29.1140 C   0  0  0  0  0  0  0  0  0  0  0  0
    4.8210   -0.0950   27.9890 C   0  0  0  0  0  0  0  0  0  0  0  0
    4.8230    0.8860   26.5220 Cl  0  0  0  0  0  0  0  0  0  0  0  0
    5.8910   -4.9330   23.5510 C   0  0  0  0  0  0  0  0  0  0  0  0
    6.5960   -5.3780   22.2770 C   0  0  0  0  0  0  0  0  0  0  0  0
  1  2  1  0
  2  3  2  0
  2  4  1  0
  4  5  1  0
  5  6  1  0
  6  7  1  0
  7  8  1  0
  8  9  2  0
  8 10  1  0
 10 11  1  0
 11 12  1  0
 12 13  2  0
 12 14  1  0
 14 15  1  0
 15 16  2  0
 16 17  1  0
 17 18  1  0
 18 19  2  0
 18 20  2  0
 18 21  1  0
 21 22  1  0
 22 23  1  0
 21 24  1  0
 24 25  1  0
 17 26  2  0
 26 27  1  0
 15 28  1  0
 27 28  2  0
 28 29  1  0
 10 30  1  0
 30 31  1  0
 31 32  2  0
 32 33  1  0
 33 34  2  0
 34 35  1  0
 31 36  1  0
 35 36  2  0
 36 37  1  0
  7 38  1  0
  4 39  1  0
 38 39  1  0
M  END
