piperidine-amides-14420-covalent
     RDKit          3D

 23 25  0  0  0  0  0  0  0  0999 V2000
    7.0140   -3.3700   19.4170 C   0  0  0  0  0  0  0  0  0  0  0  0
    6.3430   -4.1880   20.4260 C   0  0  0  0  0  0  0  0  0  0  0  0
    5.4420   -4.9500   20.0160 O   0  0  0  0  0  0  0  0  0  0  0  0
    6.7320   -4.1320   21.7990 N   0  0  0  0  0  0  0  0  0  0  0  0
    7.4910   -3.0110   22.2890 C   0  0  0  0  0  0  0  0  0  0  0  0
    6.8430   -2.4860   23.5410 C   0  0  0  0  0  0  0  0  0  0  0  0
    6.7160   -3.6610   24.4810 C   0  0  0  0  0  0  0  0  0  0  0  0
    5.9630   -3.2970   25.7720 C   0  0  0  0  0  0  0  0  0  0  0  0
    4.7550   -3.5270   25.7150 O   0  0  0  0  0  0  0  0  0  0  0  0
    6.5940   -2.7120   26.9260 N   0  0  0  0  0  0  0  0  0  0  0  0
    6.4210   -1.2960   27.1070 C   0  0  0  0  0  0  0  0  0  0  0  0
    5.9860   -0.6210   25.9770 C   0  0  0  0  0  0  0  0  0  0  0  0
    5.7450    0.7090   25.9000 C   0  0  0  0  0  0  0  0  0  0  0  0
    5.8950    1.5780   26.9260 C   0  0  0  0  0  0  0  0  0  0  0  0
    6.3520    0.9600   28.1700 C   0  0  0  0  0  0  0  0  0  0  0  0
    6.4900    1.9960   29.2600 C   0  0  0  0  0  0  0  0  0  0  0  0
    6.9120    1.6890   30.5830 C   0  0  0  0  0  0  0  0  0  0  0  0
    7.1980    0.2440   30.7580 C   0  0  0  0  0  0  0  0  0  0  0  0
    7.7400    0.0360   32.5890 Br  0  0  0  0  0  0  0  0  0  0  0  0
    7.0750   -0.7290   29.7410 N   0  0  0  0  0  0  0  0  0  0  0  0
    6.6360   -0.4280   28.3620 C   0  0  0  0  0  0  0  0  0  0  0  0
    5.8800   -4.7410   23.7870 C   0  0  0  0  0  0  0  0  0  0  0  0
    6.5710   -5.2530   22.6930 C   0  0  0  0  0  0  0  0  0  0  0  0
  1  2  1  0
  2  3  2  0
  2  4  1  0
  4  5  1  0
  5  6  1  0
  6  7  1  0
  7  8  1  0
  8  9  2  0
  8 10  1  0
 10 11  1  0
 11 12  2  0
 12 13  1  0
 13 14  2  0
 14 15  1  0
 15 16  1  0
 16 17  2  0
 17 18  1  0
 18 19  1  0
 18 20  2  0
 11 21  1  0
 15 21  2  0
 20 21  1  0
  7 22  1  0
  4 23  1  0
 22 23  1  0
M  END
