piperidine-amides-34408-covalent
     RDKit          3D

 30 33  0  0  0  0  0  0  0  0999 V2000
    6.9750   -3.3520   19.4630 C   0  0  0  0  0  0  0  0  0  0  0  0
    6.3440   -4.2650   20.4380 C   0  0  0  0  0  0  0  0  0  0  0  0
    5.4510   -5.0400   20.0240 O   0  0  0  0  0  0  0  0  0  0  0  0
    6.7380   -4.3000   21.8080 N   0  0  0  0  0  0  0  0  0  0  0  0
    6.5060   -5.5240   22.5700 C   0  0  0  0  0  0  0  0  0  0  0  0
    5.9120   -5.1540   23.9580 C   0  0  0  0  0  0  0  0  0  0  0  0
    5.8710   -3.6480   23.9860 C   0  0  0  0  0  0  0  0  0  0  0  0
    5.2160   -2.9800   25.1850 C   0  0  0  0  0  0  0  0  0  0  0  0
    4.6330   -1.9200   24.9210 O   0  0  0  0  0  0  0  0  0  0  0  0
    5.1750   -3.4270   26.5570 N   0  0  0  0  0  0  0  0  0  0  0  0
    4.9410   -2.4440   27.5820 C   0  0  0  0  0  0  0  0  0  0  0  0
    4.3400   -3.1150   28.8160 C   0  0  0  0  0  0  0  0  0  0  0  0
    3.1910   -2.7640   29.4210 C   0  0  0  0  0  0  0  0  0  0  0  0
    2.9200   -3.5980   30.5260 N   0  0  0  0  0  0  0  0  0  0  0  0
    3.9610   -4.4480   30.5330 N   0  0  0  0  0  0  0  0  0  0  0  0
    3.8790   -5.3560   31.5420 C   0  0  0  0  0  0  0  0  0  0  0  0
    3.2990   -5.1340   32.7460 C   0  0  0  0  0  0  0  0  0  0  0  0
    3.1970   -6.0080   33.7840 C   0  0  0  0  0  0  0  0  0  0  0  0
    3.6540   -7.4520   33.9850 C   0  0  0  0  0  0  0  0  0  0  0  0
    4.2910   -7.6260   32.5920 C   0  0  0  0  0  0  0  0  0  0  0  0
    4.3740   -6.6180   31.4740 C   0  0  0  0  0  0  0  0  0  0  0  0
    5.1750   -7.1500   29.9970 Cl  0  0  0  0  0  0  0  0  0  0  0  0
    4.8250   -4.1610   29.5140 C   0  0  0  0  0  0  0  0  0  0  0  0
    5.9820   -4.7540   29.1450 C   0  0  0  0  0  0  0  0  0  0  0  0
    5.7440   -5.1680   27.8990 C   0  0  0  0  0  0  0  0  0  0  0  0
    4.3070   -5.5250   27.5910 C   0  0  0  0  0  0  0  0  0  0  0  0
    6.3700   -6.4680   27.6210 C   0  0  0  0  0  0  0  0  0  0  0  0
    6.1510   -4.3210   26.9040 C   0  0  0  0  0  0  0  0  0  0  0  0
    7.1940   -3.0160   23.6870 C   0  0  0  0  0  0  0  0  0  0  0  0
    7.5880   -3.2770   22.3970 C   0  0  0  0  0  0  0  0  0  0  0  0
  1  2  1  0
  2  3  2  0
  2  4  1  0
  4  5  1  0
  5  6  1  0
  6  7  1  0
  7  8  1  0
  8  9  2  0
  8 10  1  0
 10 11  1  0
 11 12  1  0
 12 13  1  0
 13 14  2  0
 14 15  1  0
 15 16  1  0
 16 17  2  0
 17 18  1  0
 18 19  2  0
 19 20  1  0
 16 21  1  0
 20 21  2  0
 21 22  1  0
 12 23  2  0
 15 23  1  0
 23 24  1  0
 24 25  1  0
 25 26  1  0
 25 27  1  0
 10 28  1  0
 25 28  1  0
  7 29  1  0
  4 30  1  0
 29 30  1  0
M  END
