piperidine-amides-3424-covalent
     RDKit          3D

 21 22  0  0  0  0  0  0  0  0999 V2000
    7.0630   -3.3570   19.3080 C   0  0  0  0  0  0  0  0  0  0  0  0
    6.3820   -4.1880   20.2900 C   0  0  0  0  0  0  0  0  0  0  0  0
    5.3530   -4.7850   19.9730 O   0  0  0  0  0  0  0  0  0  0  0  0
    6.9390   -4.3720   21.6020 N   0  0  0  0  0  0  0  0  0  0  0  0
    6.4770   -5.4620   22.4000 C   0  0  0  0  0  0  0  0  0  0  0  0
    5.7410   -4.9140   23.5930 C   0  0  0  0  0  0  0  0  0  0  0  0
    6.5600   -3.7830   24.2220 C   0  0  0  0  0  0  0  0  0  0  0  0
    5.8200   -3.2060   25.3810 C   0  0  0  0  0  0  0  0  0  0  0  0
    4.6040   -2.9360   25.3240 O   0  0  0  0  0  0  0  0  0  0  0  0
    6.5150   -2.9650   26.5860 N   0  0  0  0  0  0  0  0  0  0  0  0
    6.4010   -1.6850   27.2590 C   0  0  0  0  0  0  0  0  0  0  0  0
    5.8500   -0.5550   26.4670 C   0  0  0  0  0  0  0  0  0  0  0  0
    5.8770    0.7020   27.0310 C   0  0  0  0  0  0  0  0  0  0  0  0
    6.4280    0.8810   28.3220 C   0  0  0  0  0  0  0  0  0  0  0  0
    6.7780    2.1950   28.6730 O   0  0  0  0  0  0  0  0  0  0  0  0
    6.6460   -0.1750   29.2690 N   0  0  0  0  0  0  0  0  0  0  0  0
    7.3420   -0.0220   30.4770 C   0  0  0  0  0  0  0  0  0  0  0  0
    6.5390    0.0430   31.6890 C   0  0  0  0  0  0  0  0  0  0  0  0
    6.7550   -1.4340   28.5660 C   0  0  0  0  0  0  0  0  0  0  0  0
    6.7770   -2.6940   23.1860 C   0  0  0  0  0  0  0  0  0  0  0  0
    7.5990   -3.2260   22.2030 C   0  0  0  0  0  0  0  0  0  0  0  0
  1  2  1  0
  2  3  2  0
  2  4  1  0
  4  5  1  0
  5  6  1  0
  6  7  1  0
  7  8  1  0
  8  9  2  0
  8 10  1  0
 10 11  1  0
 11 12  1  0
 12 13  2  0
 13 14  1  0
 14 15  2  0
 14 16  1  0
 16 17  1  0
 17 18  1  0
 11 19  2  0
 16 19  1  0
  7 20  1  0
  4 21  1  0
 20 21  1  0
M  END
