piperidine-amides-33877-covalent
     RDKit          3D

 30 32  0  0  0  0  0  0  0  0999 V2000
    7.0700   -3.3520   19.2820 C   0  0  0  0  0  0  0  0  0  0  0  0
    6.4090   -4.1700   20.3070 C   0  0  0  0  0  0  0  0  0  0  0  0
    5.3670   -4.7800   19.9690 O   0  0  0  0  0  0  0  0  0  0  0  0
    6.9750   -4.3010   21.5980 N   0  0  0  0  0  0  0  0  0  0  0  0
    6.5150   -5.3460   22.4400 C   0  0  0  0  0  0  0  0  0  0  0  0
    5.9690   -4.9100   23.7320 C   0  0  0  0  0  0  0  0  0  0  0  0
    6.4590   -3.6130   24.2790 C   0  0  0  0  0  0  0  0  0  0  0  0
    5.6140   -3.1220   25.4150 C   0  0  0  0  0  0  0  0  0  0  0  0
    4.4400   -2.7800   25.1910 O   0  0  0  0  0  0  0  0  0  0  0  0
    6.1140   -3.0530   26.7340 N   0  0  0  0  0  0  0  0  0  0  0  0
    6.4360   -4.1470   27.5850 C   0  0  0  0  0  0  0  0  0  0  0  0
    6.5360   -1.7480   27.2380 C   0  0  0  0  0  0  0  0  0  0  0  0
    6.9710   -1.7580   28.7130 C   0  0  0  0  0  0  0  0  0  0  0  0
    6.9890   -0.5450   29.3310 C   0  0  0  0  0  0  0  0  0  0  0  0
    5.9400    0.3040   28.9920 N   0  0  0  0  0  0  0  0  0  0  0  0
    5.4120    1.1710   29.9930 C   0  0  0  0  0  0  0  0  0  0  0  0
    6.0200    0.7850   31.3100 C   0  0  0  0  0  0  0  0  0  0  0  0
    7.3510    1.1330   31.3660 N   0  0  0  0  0  0  0  0  0  0  0  0
    8.1150    0.7980   32.5870 C   0  0  0  0  0  0  0  0  0  0  0  0
    7.3640    0.1080   33.6720 C   0  0  0  0  0  0  0  0  0  0  0  0
    8.0810   -0.2850   34.9560 C   0  0  0  0  0  0  0  0  0  0  0  0
    5.9360   -0.2020   33.5110 C   0  0  0  0  0  0  0  0  0  0  0  0
    5.4500   -0.7910   34.5410 O   0  0  0  0  0  0  0  0  0  0  0  0
    5.0370   -0.0330   35.6460 C   0  0  0  0  0  0  0  0  0  0  0  0
    5.3010    0.1360   32.3450 C   0  0  0  0  0  0  0  0  0  0  0  0
    3.9690   -0.1580   32.1740 C   0  0  0  0  0  0  0  0  0  0  0  0
    5.5100    0.4090   27.6410 C   0  0  0  0  0  0  0  0  0  0  0  0
    5.6090   -0.7930   26.9070 C   0  0  0  0  0  0  0  0  0  0  0  0
    6.5580   -2.6020   23.1790 C   0  0  0  0  0  0  0  0  0  0  0  0
    7.5630   -3.1300   22.1890 C   0  0  0  0  0  0  0  0  0  0  0  0
  1  2  1  0
  2  3  2  0
  2  4  1  0
  4  5  1  0
  5  6  1  0
  6  7  1  0
  7  8  1  0
  8  9  2  0
  8 10  1  0
 10 11  1  0
 10 12  1  0
 12 13  1  0
 13 14  1  0
 14 15  1  0
 15 16  1  0
 16 17  1  0
 17 18  2  0
 18 19  1  0
 19 20  2  0
 20 21  1  0
 20 22  1  0
 22 23  1  0
 23 24  1  0
 17 25  1  0
 22 25  2  0
 25 26  1  0
 15 27  1  0
 12 28  1  0
 27 28  1  0
  7 29  1  0
  4 30  1  0
 29 30  1  0
M  END
