piperidine-amides-21637-covalent
     RDKit          3D

 23 25  0  0  0  0  0  0  0  0999 V2000
    7.0790   -3.3840   19.3570 C   0  0  0  0  0  0  0  0  0  0  0  0
    6.3500   -4.2390   20.2910 C   0  0  0  0  0  0  0  0  0  0  0  0
    5.2360   -4.6610   19.9110 O   0  0  0  0  0  0  0  0  0  0  0  0
    6.9280   -4.6070   21.5020 N   0  0  0  0  0  0  0  0  0  0  0  0
    6.5090   -5.7940   22.2100 C   0  0  0  0  0  0  0  0  0  0  0  0
    5.7220   -5.3790   23.4260 C   0  0  0  0  0  0  0  0  0  0  0  0
    6.3800   -4.2340   24.1420 C   0  0  0  0  0  0  0  0  0  0  0  0
    5.6020   -3.8280   25.3230 C   0  0  0  0  0  0  0  0  0  0  0  0
    4.3940   -3.5330   25.1880 O   0  0  0  0  0  0  0  0  0  0  0  0
    6.1730   -3.7600   26.5930 N   0  0  0  0  0  0  0  0  0  0  0  0
    5.3970   -3.9580   27.7900 C   0  0  0  0  0  0  0  0  0  0  0  0
    6.5130   -4.2040   28.7310 C   0  0  0  0  0  0  0  0  0  0  0  0
    7.7080   -4.0490   28.0950 C   0  0  0  0  0  0  0  0  0  0  0  0
    7.5980   -3.5540   26.7890 C   0  0  2  0  0  0  0  0  0  0  0  0
    7.8530   -2.2110   26.5220 C   0  0  0  0  0  0  0  0  0  0  0  0
    7.8200   -1.6750   25.2290 C   0  0  0  0  0  0  0  0  0  0  0  0
    6.6440   -0.9690   25.3220 C   0  0  0  0  0  0  0  0  0  0  0  0
    6.3360   -0.2770   24.0980 C   0  0  0  0  0  0  0  0  0  0  0  0
    7.3990   -0.6060   23.2530 N   0  0  0  0  0  0  0  0  0  0  0  0
    8.1750   -1.4300   24.0640 N   0  0  0  0  0  0  0  0  0  0  0  0
    9.2600   -1.8310   23.3640 C   0  0  0  0  0  0  0  0  0  0  0  0
    6.5530   -3.0690   23.1790 C   0  0  0  0  0  0  0  0  0  0  0  0
    7.6240   -3.5880   22.2630 C   0  0  0  0  0  0  0  0  0  0  0  0
  1  2  1  0
  2  3  2  0
  2  4  1  0
  4  5  1  0
  5  6  1  0
  6  7  1  0
  7  8  1  0
  8  9  2  0
  8 10  1  0
 10 11  1  0
 11 12  1  0
 12 13  1  0
 10 14  1  0
 13 14  1  0
 14 15  1  1
 15 16  1  0
 16 17  2  0
 17 18  1  0
 18 19  2  0
 16 20  1  0
 19 20  1  0
 20 21  1  0
  7 22  1  0
  4 23  1  0
 22 23  1  0
M  END
