piperidine-amides-11239-covalent
     RDKit          3D

 19 20  0  0  0  0  0  0  0  0999 V2000
    7.0820   -3.3330   19.2680 C   0  0  0  0  0  0  0  0  0  0  0  0
    6.3850   -4.1440   20.2690 C   0  0  0  0  0  0  0  0  0  0  0  0
    5.3480   -4.7470   19.9520 O   0  0  0  0  0  0  0  0  0  0  0  0
    6.8990   -4.2940   21.5600 N   0  0  0  0  0  0  0  0  0  0  0  0
    7.7510   -3.3060   22.1820 C   0  0  0  0  0  0  0  0  0  0  0  0
    6.9820   -2.7900   23.3530 C   0  0  0  0  0  0  0  0  0  0  0  0
    6.5500   -3.9150   24.2400 C   0  0  0  0  0  0  0  0  0  0  0  0
    5.7860   -3.4360   25.4170 C   0  0  0  0  0  0  0  0  0  0  0  0
    4.5190   -3.4450   25.3950 O   0  0  0  0  0  0  0  0  0  0  0  0
    6.3990   -2.9490   26.5860 N   0  0  0  0  0  0  0  0  0  0  0  0
    5.8030   -1.8020   27.2970 C   0  0  1  0  0  0  0  0  0  0  0  0
    6.7020   -0.9910   27.8780 C   0  0  0  0  0  0  0  0  0  0  0  0
    6.0410   -0.3260   26.6850 C   0  0  1  0  0  0  0  0  0  0  0  0
    6.5690   -0.7250   25.3360 C   0  0  0  0  0  0  0  0  0  0  0  0
    4.7050    0.3500   26.5840 C   0  0  0  0  0  0  0  0  0  0  0  0
    4.6080    0.5200   28.0570 C   0  0  0  0  0  0  0  0  0  0  0  0
    3.4700   -0.4450   26.1150 C   0  0  0  0  0  0  0  0  0  0  0  0
    5.7380   -4.9480   23.5070 C   0  0  0  0  0  0  0  0  0  0  0  0
    6.5580   -5.4620   22.3470 C   0  0  0  0  0  0  0  0  0  0  0  0
  1  2  1  0
  2  3  2  0
  2  4  1  0
  4  5  1  0
  5  6  1  0
  6  7  1  0
  7  8  1  0
  8  9  2  0
  8 10  1  0
 11 10  1  6
 11 12  1  0
 11 13  1  0
 12 13  1  0
 13 14  1  6
 13 15  1  0
 15 16  1  0
 15 17  1  0
  7 18  1  0
  4 19  1  0
 18 19  1  0
M  END
