piperidine-amides-1041-covalent
     RDKit          3D

 24 25  0  0  0  0  0  0  0  0999 V2000
    7.1430   -3.2730   19.2150 C   0  0  0  0  0  0  0  0  0  0  0  0
    6.3100   -4.0070   20.2040 C   0  0  0  0  0  0  0  0  0  0  0  0
    5.2230   -4.4850   19.8500 O   0  0  0  0  0  0  0  0  0  0  0  0
    6.8070   -4.1910   21.5010 N   0  0  0  0  0  0  0  0  0  0  0  0
    6.5060   -5.3630   22.2820 C   0  0  0  0  0  0  0  0  0  0  0  0
    5.6410   -4.8820   23.4480 C   0  0  0  0  0  0  0  0  0  0  0  0
    6.4770   -3.9190   24.2180 C   0  0  0  0  0  0  0  0  0  0  0  0
    5.8190   -3.4190   25.4470 C   0  0  0  0  0  0  0  0  0  0  0  0
    5.0850   -2.4320   25.3310 O   0  0  0  0  0  0  0  0  0  0  0  0
    6.0380   -4.0910   26.6520 N   0  0  0  0  0  0  0  0  0  0  0  0
    6.1600   -3.5740   27.9670 C   0  0  0  0  0  0  0  0  0  0  0  0
    5.2830   -3.9250   28.9600 C   0  0  0  0  0  0  0  0  0  0  0  0
    5.1930   -5.2680   29.3600 C   0  0  0  0  0  0  0  0  0  0  0  0
    4.3560   -5.6860   30.3150 C   0  0  0  0  0  0  0  0  0  0  0  0
    3.5350   -4.6680   30.9260 C   0  0  0  0  0  0  0  0  0  0  0  0
    2.6260   -5.0290   31.9380 N   0  0  0  0  0  0  0  0  0  0  0  0
    3.0030   -5.9680   32.9550 C   0  0  0  0  0  0  0  0  0  0  0  0
    3.7290   -5.3260   34.1370 C   0  0  0  0  0  0  0  0  0  0  0  0
    1.3110   -4.8880   31.6830 C   0  0  0  0  0  0  0  0  0  0  0  0
    1.1740   -5.1880   30.2370 C   0  0  0  0  0  0  0  0  0  0  0  0
    3.6550   -3.2570   30.4850 C   0  0  0  0  0  0  0  0  0  0  0  0
    4.4770   -2.6710   29.5090 C   0  0  0  0  0  0  0  0  0  0  0  0
    6.9580   -2.7420   23.4410 C   0  0  0  0  0  0  0  0  0  0  0  0
    7.5980   -3.1470   22.1380 C   0  0  0  0  0  0  0  0  0  0  0  0
  1  2  1  0
  2  3  2  0
  2  4  1  0
  4  5  1  0
  5  6  1  0
  6  7  1  0
  7  8  1  0
  8  9  2  0
  8 10  1  0
 10 11  1  0
 11 12  1  0
 12 13  2  0
 13 14  1  0
 14 15  2  0
 15 16  1  0
 16 17  1  0
 17 18  1  0
 16 19  1  0
 19 20  1  0
 15 21  1  0
 12 22  1  0
 21 22  2  0
  7 23  1  0
  4 24  1  0
 23 24  1  0
M  END
