piperidine-amides-9289-covalent
     RDKit          3D

 19 20  0  0  0  0  0  0  0  0999 V2000
    7.0780   -3.3130   19.2640 C   0  0  0  0  0  0  0  0  0  0  0  0
    6.3510   -4.1010   20.2600 C   0  0  0  0  0  0  0  0  0  0  0  0
    5.3120   -4.6940   19.9320 O   0  0  0  0  0  0  0  0  0  0  0  0
    6.8360   -4.2450   21.5660 N   0  0  0  0  0  0  0  0  0  0  0  0
    7.7090   -3.2620   22.1740 C   0  0  0  0  0  0  0  0  0  0  0  0
    6.9680   -2.7310   23.3680 C   0  0  0  0  0  0  0  0  0  0  0  0
    6.5530   -3.8480   24.2660 C   0  0  0  0  0  0  0  0  0  0  0  0
    5.7840   -3.3580   25.4370 C   0  0  0  0  0  0  0  0  0  0  0  0
    4.5160   -3.3900   25.4180 O   0  0  0  0  0  0  0  0  0  0  0  0
    6.3910   -2.8300   26.6020 N   0  0  0  0  0  0  0  0  0  0  0  0
    6.7270   -1.3870   26.6550 C   0  0  1  0  0  0  0  0  0  0  0  0
    5.8540   -0.1590   26.7310 C   0  0  0  0  0  0  0  0  0  0  0  0
    4.8790   -0.0910   27.5590 O   0  0  0  0  0  0  0  0  0  0  0  0
    5.3180   -0.7290   28.6660 N   0  0  0  0  0  0  0  0  0  0  0  0
    4.6040   -1.7670   29.3080 C   0  0  0  0  0  0  0  0  0  0  0  0
    6.4680   -1.4590   28.1310 C   0  0  0  0  0  0  0  0  0  0  0  0
    7.2410   -2.1660   28.9910 O   0  0  0  0  0  0  0  0  0  0  0  0
    5.8960   -5.0060   23.5990 C   0  0  0  0  0  0  0  0  0  0  0  0
    6.5630   -5.4140   22.3420 C   0  0  0  0  0  0  0  0  0  0  0  0
  1  2  1  0
  2  3  2  0
  2  4  1  0
  4  5  1  0
  5  6  1  0
  6  7  1  0
  7  8  1  0
  8  9  2  0
  8 10  1  0
 11 10  1  6
 11 12  1  0
 12 13  1  0
 13 14  1  0
 14 15  1  0
 11 16  1  0
 14 16  1  0
 16 17  2  0
  7 18  1  0
  4 19  1  0
 18 19  1  0
M  END
