piperidine-amides-6893-covalent
     RDKit          3D

 22 22  0  0  0  0  0  0  0  0999 V2000
    7.1110   -3.2530   19.2170 C   0  0  0  0  0  0  0  0  0  0  0  0
    6.3480   -4.0460   20.1970 C   0  0  0  0  0  0  0  0  0  0  0  0
    5.2600   -4.5660   19.8800 O   0  0  0  0  0  0  0  0  0  0  0  0
    6.8490   -4.2840   21.4780 N   0  0  0  0  0  0  0  0  0  0  0  0
    7.6270   -3.2660   22.1490 C   0  0  0  0  0  0  0  0  0  0  0  0
    6.7550   -2.6930   23.2690 C   0  0  0  0  0  0  0  0  0  0  0  0
    6.3500   -3.8620   24.1450 C   0  0  0  0  0  0  0  0  0  0  0  0
    5.4620   -3.3510   25.2120 C   0  0  0  0  0  0  0  0  0  0  0  0
    4.5320   -2.5850   24.8990 O   0  0  0  0  0  0  0  0  0  0  0  0
    5.6930   -3.7370   26.5510 N   0  0  0  0  0  0  0  0  0  0  0  0
    6.8050   -4.5750   26.8310 C   0  0  1  0  0  0  0  0  0  0  0  0
    8.0030   -3.7060   26.6030 C   0  0  0  0  0  0  0  0  0  0  0  0
    8.8610   -4.0840   25.6200 C   0  0  0  0  0  0  0  0  0  0  0  0
    9.2030   -3.4460   24.5830 O   0  0  0  0  0  0  0  0  0  0  0  0
    9.3770   -5.2640   25.8470 O   0  0  0  0  0  0  0  0  0  0  0  0
    9.3580   -6.2500   26.7030 C   0  0  0  0  0  0  0  0  0  0  0  0
    6.7130   -5.1050   28.2330 C   0  0  0  0  0  0  0  0  0  0  0  0
    5.9370   -6.2320   28.3410 C   0  0  0  0  0  0  0  0  0  0  0  0
    4.4270   -6.2460   28.4760 C   0  0  0  0  0  0  0  0  0  0  0  0
    5.1050   -6.7010   27.1980 C   0  0  0  0  0  0  0  0  0  0  0  0
    5.6490   -4.9450   23.4260 C   0  0  0  0  0  0  0  0  0  0  0  0
    6.3560   -5.3830   22.2270 C   0  0  0  0  0  0  0  0  0  0  0  0
  1  2  1  0
  2  3  2  0
  2  4  1  0
  4  5  1  0
  5  6  1  0
  6  7  1  0
  7  8  1  0
  8  9  2  0
  8 10  1  0
 10 11  1  0
 11 12  1  1
 12 13  1  0
 13 14  2  0
 13 15  1  0
 15 16  1  0
 11 17  1  0
 17 18  1  0
 18 19  1  0
 18 20  1  0
  7 21  1  0
  4 22  1  0
 21 22  1  0
M  END
