piperidine-amides-27413-covalent
     RDKit          3D

 26 28  0  0  0  0  0  0  0  0999 V2000
    7.0810   -3.3850   19.3820 C   0  0  0  0  0  0  0  0  0  0  0  0
    6.4070   -4.2340   20.3660 C   0  0  0  0  0  0  0  0  0  0  0  0
    5.3600   -4.8170   19.9750 O   0  0  0  0  0  0  0  0  0  0  0  0
    6.9560   -4.4100   21.6380 N   0  0  0  0  0  0  0  0  0  0  0  0
    6.6170   -5.5480   22.4520 C   0  0  0  0  0  0  0  0  0  0  0  0
    5.7980   -5.0550   23.6140 C   0  0  0  0  0  0  0  0  0  0  0  0
    6.4150   -3.8790   24.3500 C   0  0  0  0  0  0  0  0  0  0  0  0
    5.4290   -3.2780   25.2880 C   0  0  0  0  0  0  0  0  0  0  0  0
    4.6650   -2.4140   24.8210 O   0  0  0  0  0  0  0  0  0  0  0  0
    5.2520   -3.5970   26.6580 N   0  0  0  0  0  0  0  0  0  0  0  0
    4.0410   -3.2480   27.3050 C   0  0  0  0  0  0  0  0  0  0  0  0
    4.3420   -2.8400   28.7330 C   0  0  0  0  0  0  0  0  0  0  0  0
    4.9910   -3.6370   29.6110 C   0  0  0  0  0  0  0  0  0  0  0  0
    5.2640   -4.8720   29.2160 N   0  0  0  0  0  0  0  0  0  0  0  0
    5.1870   -5.7910   30.1840 C   0  0  0  0  0  0  0  0  0  0  0  0
    6.0530   -6.8580   30.2990 C   0  0  0  0  0  0  0  0  0  0  0  0
    5.9570   -7.7770   31.3500 C   0  0  0  0  0  0  0  0  0  0  0  0
    4.9880   -7.6900   32.3480 C   0  0  0  0  0  0  0  0  0  0  0  0
    4.8970   -8.6770   33.4900 C   0  0  0  0  0  0  0  0  0  0  0  0
    3.5660   -9.0940   33.7830 N   0  0  0  0  0  0  0  0  0  0  0  0
    4.1200   -6.6670   32.2490 C   0  0  0  0  0  0  0  0  0  0  0  0
    4.2100   -5.6830   31.1390 C   0  0  0  0  0  0  0  0  0  0  0  0
    6.3610   -4.7340   28.2740 C   0  0  0  0  0  0  0  0  0  0  0  0
    6.3320   -3.5480   27.5160 C   0  0  0  0  0  0  0  0  0  0  0  0
    6.8400   -2.8000   23.3580 C   0  0  0  0  0  0  0  0  0  0  0  0
    7.7470   -3.3980   22.3030 C   0  0  0  0  0  0  0  0  0  0  0  0
  1  2  1  0
  2  3  2  0
  2  4  1  0
  4  5  1  0
  5  6  1  0
  6  7  1  0
  7  8  1  0
  8  9  2  0
  8 10  1  0
 10 11  1  0
 11 12  1  0
 12 13  1  0
 13 14  1  0
 14 15  1  0
 15 16  2  0
 16 17  1  0
 17 18  2  0
 18 19  1  0
 19 20  3  0
 18 21  1  0
 15 22  1  0
 21 22  2  0
 14 23  1  0
 10 24  1  0
 23 24  1  0
  7 25  1  0
  4 26  1  0
 25 26  1  0
M  END
