piperidine-amides-4193-covalent
     RDKit          3D

 27 28  0  0  0  0  0  0  0  0999 V2000
    7.1580   -3.2940   19.2330 C   0  0  0  0  0  0  0  0  0  0  0  0
    6.3850   -4.0290   20.2460 C   0  0  0  0  0  0  0  0  0  0  0  0
    5.2920   -4.5220   19.8800 O   0  0  0  0  0  0  0  0  0  0  0  0
    6.8920   -4.2240   21.5560 N   0  0  0  0  0  0  0  0  0  0  0  0
    7.6990   -3.2100   22.1370 C   0  0  0  0  0  0  0  0  0  0  0  0
    7.2290   -2.8710   23.4560 C   0  0  0  0  0  0  0  0  0  0  0  0
    5.9780   -3.5810   23.7510 C   0  0  0  0  0  0  0  0  0  0  0  0
    5.4890   -3.2540   25.1170 C   0  0  0  0  0  0  0  0  0  0  0  0
    4.3700   -2.7330   25.2600 O   0  0  0  0  0  0  0  0  0  0  0  0
    6.2640   -3.5300   26.2370 N   0  0  0  0  0  0  0  0  0  0  0  0
    5.9060   -4.3010   27.3570 C   0  0  0  0  0  0  0  0  0  0  0  0
    6.2360   -3.8430   28.6780 C   0  0  2  0  0  0  0  0  0  0  0  0
    4.9680   -4.1560   29.4890 C   0  0  0  0  0  0  0  0  0  0  0  0
    5.1070   -5.4870   29.8280 O   0  0  0  0  0  0  0  0  0  0  0  0
    6.6380   -2.4390   28.8590 C   0  0  0  0  0  0  0  0  0  0  0  0
    5.7230   -1.4930   29.6480 C   0  0  0  0  0  0  0  0  0  0  0  0
    6.3410   -0.2260   29.0980 C   0  0  0  0  0  0  0  0  0  0  0  0
    5.5730    0.9360   29.7640 C   0  0  0  0  0  0  0  0  0  0  0  0
    4.4460    0.8110   30.7490 C   0  0  0  0  0  0  0  0  0  0  0  0
    3.7850    2.0540   31.3210 C   0  0  0  0  0  0  0  0  0  0  0  0
    4.7320    2.9990   31.5940 F   0  0  0  0  0  0  0  0  0  0  0  0
    2.7270    2.4820   30.5690 F   0  0  0  0  0  0  0  0  0  0  0  0
    3.2800    1.7970   32.5560 F   0  0  0  0  0  0  0  0  0  0  0  0
    4.0000   -0.5460   31.1470 C   0  0  0  0  0  0  0  0  0  0  0  0
    4.6680   -1.7300   30.5710 C   0  0  0  0  0  0  0  0  0  0  0  0
    6.0410   -5.0650   23.5440 C   0  0  0  0  0  0  0  0  0  0  0  0
    6.5740   -5.4130   22.3040 C   0  0  0  0  0  0  0  0  0  0  0  0
  1  2  1  0
  2  3  2  0
  2  4  1  0
  4  5  1  0
  5  6  1  0
  6  7  1  0
  7  8  1  0
  8  9  2  0
  8 10  1  0
 10 11  1  0
 12 11  1  6
 12 13  1  0
 13 14  1  0
 12 15  1  0
 15 16  1  0
 16 17  2  0
 17 18  1  0
 18 19  2  0
 19 20  1  0
 20 21  1  0
 20 22  1  0
 20 23  1  0
 19 24  1  0
 16 25  1  0
 24 25  2  0
  7 26  1  0
  4 27  1  0
 26 27  1  0
M  END
