piperidine-amides-3185-covalent
     RDKit          3D

 22 23  0  0  0  0  0  0  0  0999 V2000
    7.1220   -3.2700   19.1410 C   0  0  0  0  0  0  0  0  0  0  0  0
    6.3450   -3.9910   20.1410 C   0  0  0  0  0  0  0  0  0  0  0  0
    5.2550   -4.4800   19.8510 O   0  0  0  0  0  0  0  0  0  0  0  0
    6.8770   -4.1920   21.4500 N   0  0  0  0  0  0  0  0  0  0  0  0
    6.5220   -5.3790   22.1690 C   0  0  0  0  0  0  0  0  0  0  0  0
    5.7940   -4.9920   23.4210 C   0  0  0  0  0  0  0  0  0  0  0  0
    6.5700   -3.8530   24.0610 C   0  0  0  0  0  0  0  0  0  0  0  0
    5.8150   -3.3830   25.2400 C   0  0  0  0  0  0  0  0  0  0  0  0
    4.5730   -3.4470   25.3020 O   0  0  0  0  0  0  0  0  0  0  0  0
    6.5400   -2.8470   26.3190 N   0  0  0  0  0  0  0  0  0  0  0  0
    6.1330   -3.2070   27.6470 C   0  0  0  0  0  0  0  0  0  0  0  0
    5.1490   -2.1460   28.0920 C   0  0  0  0  0  0  0  0  0  0  0  0
    4.0840   -1.6980   27.3040 C   0  0  0  0  0  0  0  0  0  0  0  0
    3.1870   -0.7200   27.7270 C   0  0  0  0  0  0  0  0  0  0  0  0
    3.3230   -0.1550   28.9500 C   0  0  0  0  0  0  0  0  0  0  0  0
    4.3770   -0.5230   29.8630 C   0  0  0  0  0  0  0  0  0  0  0  0
    4.5640    0.0140   31.1140 C   0  0  0  0  0  0  0  0  0  0  0  0
    5.2260   -1.4810   29.4070 C   0  0  0  0  0  0  0  0  0  0  0  0
    6.2660   -1.9080   30.1910 O   0  0  0  0  0  0  0  0  0  0  0  0
    7.4330   -1.1900   29.8810 C   0  0  0  0  0  0  0  0  0  0  0  0
    6.9210   -2.7420   23.2020 C   0  0  0  0  0  0  0  0  0  0  0  0
    7.6530   -3.1850   22.1250 C   0  0  0  0  0  0  0  0  0  0  0  0
  1  2  1  0
  2  3  2  0
  2  4  1  0
  4  5  1  0
  5  6  1  0
  6  7  1  0
  7  8  1  0
  8  9  2  0
  8 10  1  0
 10 11  1  0
 11 12  1  0
 12 13  2  0
 13 14  1  0
 14 15  2  0
 15 16  1  0
 16 17  1  0
 12 18  1  0
 16 18  2  0
 18 19  1  0
 19 20  1  0
  7 21  1  0
  4 22  1  0
 21 22  1  0
M  END
