piperidine-amides-32974-covalent
     RDKit          3D

 29 31  0  0  0  0  0  0  0  0999 V2000
    7.0500   -3.3250   19.3510 C   0  0  0  0  0  0  0  0  0  0  0  0
    6.3600   -4.1940   20.3470 C   0  0  0  0  0  0  0  0  0  0  0  0
    5.3690   -4.8510   19.9780 O   0  0  0  0  0  0  0  0  0  0  0  0
    6.8620   -4.2930   21.6670 N   0  0  0  0  0  0  0  0  0  0  0  0
    6.6780   -5.4970   22.4470 C   0  0  0  0  0  0  0  0  0  0  0  0
    6.1470   -5.1360   23.8510 C   0  0  0  0  0  0  0  0  0  0  0  0
    6.2060   -3.6540   24.0540 C   0  0  0  0  0  0  0  0  0  0  0  0
    5.8500   -3.2120   25.4290 C   0  0  0  0  0  0  0  0  0  0  0  0
    4.6370   -3.1460   25.6690 O   0  0  0  0  0  0  0  0  0  0  0  0
    6.8400   -2.8910   26.3860 N   0  0  0  0  0  0  0  0  0  0  0  0
    7.6710   -3.8760   27.0000 C   0  0  0  0  0  0  0  0  0  0  0  0
    7.1150   -1.5100   26.7020 C   0  0  2  0  0  0  0  0  0  0  0  0
    7.9060   -1.2440   27.8380 C   0  0  0  0  0  0  0  0  0  0  0  0
    7.4950    0.0870   28.2960 N   0  0  0  0  0  0  0  0  0  0  0  0
    7.5720    0.5980   29.5610 C   0  0  0  0  0  0  0  0  0  0  0  0
    6.8790    0.0290   30.5370 O   0  0  0  0  0  0  0  0  0  0  0  0
    8.3490    1.6990   29.8620 O   0  0  0  0  0  0  0  0  0  0  0  0
    9.7860    1.6800   29.9300 C   0  0  0  0  0  0  0  0  0  0  0  0
   10.2870    1.7790   31.3810 C   0  0  0  0  0  0  0  0  0  0  0  0
   10.8250    0.4720   31.8750 C   0  0  0  0  0  0  0  0  0  0  0  0
   11.3010    0.4190   33.1750 C   0  0  0  0  0  0  0  0  0  0  0  0
   11.3320    1.5710   34.1500 C   0  0  0  0  0  0  0  0  0  0  0  0
   10.7540    2.8400   33.4930 C   0  0  0  0  0  0  0  0  0  0  0  0
   10.2660    2.9580   32.2150 C   0  0  0  0  0  0  0  0  0  0  0  0
    6.2660    0.4570   27.6510 C   0  0  0  0  0  0  0  0  0  0  0  0
    6.0130   -0.6820   26.6860 C   0  0  1  0  0  0  0  0  0  0  0  0
    5.6120   -0.1200   25.6280 O   0  0  0  0  0  0  0  0  0  0  0  0
    7.5570   -3.1070   23.6690 C   0  0  0  0  0  0  0  0  0  0  0  0
    7.7060   -3.2170   22.2000 C   0  0  0  0  0  0  0  0  0  0  0  0
  1  2  1  0
  2  3  2  0
  2  4  1  0
  4  5  1  0
  5  6  1  0
  6  7  1  0
  7  8  1  0
  8  9  2  0
  8 10  1  0
 10 11  1  0
 12 10  1  1
 12 13  1  0
 13 14  1  0
 14 15  1  0
 15 16  2  0
 15 17  1  0
 17 18  1  0
 18 19  1  0
 19 20  2  0
 20 21  1  0
 21 22  2  0
 22 23  1  0
 19 24  1  0
 23 24  2  0
 14 25  1  0
 12 26  1  0
 25 26  1  0
 26 27  1  6
  7 28  1  0
  4 29  1  0
 28 29  1  0
M  END
