piperidine-amides-33770-covalent
     RDKit          3D

 30 32  0  0  0  0  0  0  0  0999 V2000
    7.1340   -3.2600   19.1700 C   0  0  0  0  0  0  0  0  0  0  0  0
    6.3700   -3.9960   20.1930 C   0  0  0  0  0  0  0  0  0  0  0  0
    5.2690   -4.4840   19.8520 O   0  0  0  0  0  0  0  0  0  0  0  0
    6.8940   -4.1920   21.4880 N   0  0  0  0  0  0  0  0  0  0  0  0
    6.4060   -5.2870   22.2450 C   0  0  0  0  0  0  0  0  0  0  0  0
    5.9920   -4.9350   23.6010 C   0  0  0  0  0  0  0  0  0  0  0  0
    6.8020   -3.8820   24.2540 C   0  0  0  0  0  0  0  0  0  0  0  0
    6.1870   -3.4550   25.5410 C   0  0  0  0  0  0  0  0  0  0  0  0
    4.9750   -3.1480   25.5710 O   0  0  0  0  0  0  0  0  0  0  0  0
    6.9720   -3.4020   26.7120 N   0  0  0  0  0  0  0  0  0  0  0  0
    7.2180   -2.2220   27.4570 C   0  0  0  0  0  0  0  0  0  0  0  0
    6.0940   -1.5230   28.0770 C   0  0  0  0  0  0  0  0  0  0  0  0
    6.0120   -0.3050   28.6860 N   0  0  0  0  0  0  0  0  0  0  0  0
    4.7700   -0.0670   29.1050 N   0  0  0  0  0  0  0  0  0  0  0  0
    4.0420   -1.1310   28.7710 C   0  0  0  0  0  0  0  0  0  0  0  0
    2.7050   -1.0780   29.1220 C   0  0  0  0  0  0  0  0  0  0  0  0
    2.1820   -0.6110   27.7850 C   0  0  0  0  0  0  0  0  0  0  0  0
    0.6680   -0.4250   27.7570 C   0  0  0  0  0  0  0  0  0  0  0  0
   -0.1850   -0.7180   29.0530 C   0  0  0  0  0  0  0  0  0  0  0  0
   -1.3960   -0.7610   29.6620 N   0  0  0  0  0  0  0  0  0  0  0  0
   -2.4190   -1.4090   29.1320 O   0  0  0  0  0  0  0  0  0  0  0  0
   -1.5850   -0.0530   30.7660 O   0  0  0  0  0  0  0  0  0  0  0  0
    0.5540   -1.1830   30.3060 C   0  0  0  0  0  0  0  0  0  0  0  0
    2.0360   -1.3350   30.2320 C   0  0  0  0  0  0  0  0  0  0  0  0
    4.8360   -2.0280   28.1440 O   0  0  0  0  0  0  0  0  0  0  0  0
    7.4150   -4.7240   27.1340 C   0  0  0  0  0  0  0  0  0  0  0  0
    6.3570   -5.7320   27.3780 C   0  0  0  0  0  0  0  0  0  0  0  0
    8.2950   -4.7300   28.1900 C   0  0  0  0  0  0  0  0  0  0  0  0
    7.1230   -2.7090   23.3990 C   0  0  0  0  0  0  0  0  0  0  0  0
    7.6860   -3.1510   22.0800 C   0  0  0  0  0  0  0  0  0  0  0  0
  1  2  1  0
  2  3  2  0
  2  4  1  0
  4  5  1  0
  5  6  1  0
  6  7  1  0
  7  8  1  0
  8  9  2  0
  8 10  1  0
 10 11  1  0
 11 12  1  0
 12 13  2  0
 13 14  1  0
 14 15  2  0
 15 16  1  0
 16 17  2  0
 17 18  1  0
 18 19  2  0
 19 20  1  0
 20 21  2  0
 20 22  1  0
 19 23  1  0
 16 24  1  0
 23 24  2  0
 12 25  1  0
 15 25  1  0
 10 26  1  0
 26 27  1  0
 26 28  1  0
  7 29  1  0
  4 30  1  0
 29 30  1  0
M  CHG  2  20   1  22  -1
M  END
