piperidine-amides-31537-covalent
     RDKit          3D

 28 30  0  0  0  0  0  0  0  0999 V2000
    7.0680   -3.3560   19.4900 C   0  0  0  0  0  0  0  0  0  0  0  0
    6.3790   -4.2150   20.4280 C   0  0  0  0  0  0  0  0  0  0  0  0
    5.4250   -4.9400   19.9980 O   0  0  0  0  0  0  0  0  0  0  0  0
    6.7510   -4.2870   21.7860 N   0  0  0  0  0  0  0  0  0  0  0  0
    6.5810   -5.5720   22.4960 C   0  0  0  0  0  0  0  0  0  0  0  0
    5.5240   -5.1410   23.5900 C   0  0  0  0  0  0  0  0  0  0  0  0
    6.2200   -4.1660   24.5230 C   0  0  0  0  0  0  0  0  0  0  0  0
    5.1350   -3.1860   25.1960 C   0  0  0  0  0  0  0  0  0  0  0  0
    4.5660   -2.6190   24.2870 O   0  0  0  0  0  0  0  0  0  0  0  0
    5.0380   -3.1660   26.5010 N   0  0  0  0  0  0  0  0  0  0  0  0
    4.5040   -2.8110   27.7200 C   0  0  0  0  0  0  0  0  0  0  0  0
    4.5380   -3.1610   29.0520 C   0  0  0  0  0  0  0  0  0  0  0  0
    5.0430   -4.4290   29.2370 C   0  0  0  0  0  0  0  0  0  0  0  0
    4.6880   -5.3330   30.3400 C   0  0  0  0  0  0  0  0  0  0  0  0
    5.3810   -6.6810   30.3130 C   0  0  0  0  0  0  0  0  0  0  0  0
    6.2530   -6.9160   29.2610 C   0  0  0  0  0  0  0  0  0  0  0  0
    6.7370   -6.2380   28.1120 C   0  0  0  0  0  0  0  0  0  0  0  0
    5.9920   -4.9350   28.2620 C   0  0  0  0  0  0  0  0  0  0  0  0
    6.0930   -3.7050   27.2530 C   0  0  2  0  0  0  0  0  0  0  0  0
    6.6450   -2.5470   27.7370 C   0  0  0  0  0  0  0  0  0  0  0  0
    6.9840   -1.6550   26.9200 O   0  0  0  0  0  0  0  0  0  0  0  0
    6.8370   -2.2810   29.0700 O   0  0  0  0  0  0  0  0  0  0  0  0
    6.6830   -0.9720   29.5790 C   0  0  0  0  0  0  0  0  0  0  0  0
    6.5270   -0.1820   28.4940 C   0  0  0  0  0  0  0  0  0  0  0  0
    7.8170   -0.7370   30.3150 C   0  0  0  0  0  0  0  0  0  0  0  0
    5.6690   -0.9320   30.4910 C   0  0  0  0  0  0  0  0  0  0  0  0
    7.4490   -3.4850   23.9750 C   0  0  0  0  0  0  0  0  0  0  0  0
    7.4870   -3.2770   22.4830 C   0  0  0  0  0  0  0  0  0  0  0  0
  1  2  1  0
  2  3  2  0
  2  4  1  0
  4  5  1  0
  5  6  1  0
  6  7  1  0
  7  8  1  0
  8  9  2  0
  8 10  1  0
 10 11  1  0
 11 12  1  0
 12 13  1  0
 13 14  2  0
 14 15  1  0
 15 16  2  0
 16 17  1  0
 13 18  1  0
 17 18  2  0
 10 19  1  0
 18 19  1  0
 19 20  1  1
 20 21  2  0
 20 22  1  0
 23 22  1  0
 23 24  1  0
 23 25  1  0
 23 26  1  0
  7 27  1  0
  4 28  1  0
 27 28  1  0
M  END
