piperidine-amides-26902-covalent
     RDKit          3D

 25 27  0  0  0  0  0  0  0  0999 V2000
    6.9960   -3.3810   19.4180 C   0  0  0  0  0  0  0  0  0  0  0  0
    6.3720   -4.2610   20.4190 C   0  0  0  0  0  0  0  0  0  0  0  0
    5.4070   -4.9550   20.0040 O   0  0  0  0  0  0  0  0  0  0  0  0
    6.8680   -4.3320   21.7400 N   0  0  0  0  0  0  0  0  0  0  0  0
    6.7290   -5.5600   22.5120 C   0  0  0  0  0  0  0  0  0  0  0  0
    6.2040   -5.2280   23.8920 C   0  0  0  0  0  0  0  0  0  0  0  0
    6.1740   -3.7430   24.0560 C   0  0  0  0  0  0  0  0  0  0  0  0
    5.7940   -3.2240   25.4060 C   0  0  0  0  0  0  0  0  0  0  0  0
    5.4080   -2.0400   25.4130 O   0  0  0  0  0  0  0  0  0  0  0  0
    5.7350   -3.8690   26.6720 N   0  0  0  0  0  0  0  0  0  0  0  0
    4.5790   -3.4690   27.4490 C   0  0  0  0  0  0  0  0  0  0  0  0
    4.2410   -4.2700   28.7230 C   0  0  0  0  0  0  0  0  0  0  0  0
    5.1950   -5.3390   28.9980 N   0  0  0  0  0  0  0  0  0  0  0  0
    5.0470   -6.0160   30.1210 C   0  0  0  0  0  0  0  0  0  0  0  0
    5.8960   -7.0560   30.4570 C   0  0  0  0  0  0  0  0  0  0  0  0
    5.7350   -7.7650   31.6570 C   0  0  0  0  0  0  0  0  0  0  0  0
    4.7290   -7.4720   32.5590 C   0  0  0  0  0  0  0  0  0  0  0  0
    4.7690   -8.3130   33.6820 F   0  0  0  0  0  0  0  0  0  0  0  0
    3.8660   -6.4660   32.2800 C   0  0  0  0  0  0  0  0  0  0  0  0
    4.0310   -5.7060   31.0090 C   0  0  0  0  0  0  0  0  0  0  0  0
    3.1010   -4.7120   30.8360 F   0  0  0  0  0  0  0  0  0  0  0  0
    6.4820   -5.1590   28.4980 C   0  0  0  0  0  0  0  0  0  0  0  0
    6.3740   -3.7590   27.9500 C   0  0  0  0  0  0  0  0  0  0  0  0
    7.4880   -3.1580   23.6490 C   0  0  0  0  0  0  0  0  0  0  0  0
    7.7220   -3.2580   22.2930 C   0  0  0  0  0  0  0  0  0  0  0  0
  1  2  1  0
  2  3  2  0
  2  4  1  0
  4  5  1  0
  5  6  1  0
  6  7  1  0
  7  8  1  0
  8  9  2  0
  8 10  1  0
 10 11  1  0
 11 12  1  0
 12 13  1  0
 13 14  1  0
 14 15  2  0
 15 16  1  0
 16 17  2  0
 17 18  1  0
 17 19  1  0
 14 20  1  0
 19 20  2  0
 20 21  1  0
 13 22  1  0
 10 23  1  0
 22 23  1  0
  7 24  1  0
  4 25  1  0
 24 25  1  0
M  END
