piperidine-amides-12874-covalent
     RDKit          3D

 21 21  0  0  0  0  0  0  0  0999 V2000
    7.0940   -3.2830   19.1500 C   0  0  0  0  0  0  0  0  0  0  0  0
    6.3520   -4.0240   20.1960 C   0  0  0  0  0  0  0  0  0  0  0  0
    5.2580   -4.5140   19.8630 O   0  0  0  0  0  0  0  0  0  0  0  0
    6.8890   -4.2100   21.4760 N   0  0  0  0  0  0  0  0  0  0  0  0
    6.4660   -5.3130   22.2670 C   0  0  0  0  0  0  0  0  0  0  0  0
    5.9820   -4.9310   23.6020 C   0  0  0  0  0  0  0  0  0  0  0  0
    6.6200   -3.7210   24.1800 C   0  0  0  0  0  0  0  0  0  0  0  0
    5.8620   -3.2560   25.3670 C   0  0  0  0  0  0  0  0  0  0  0  0
    4.6450   -3.0290   25.2390 O   0  0  0  0  0  0  0  0  0  0  0  0
    6.5070   -3.0610   26.6050 N   0  0  0  0  0  0  0  0  0  0  0  0
    6.1370   -3.7300   27.8800 C   0  0  0  0  0  0  0  0  0  0  0  0
    5.9290   -5.2190   27.8150 C   0  0  0  0  0  0  0  0  0  0  0  0
    5.5970   -5.8540   29.0880 C   0  0  0  0  0  0  0  0  0  0  0  0
    6.8010   -6.1310   28.5350 C   0  0  0  0  0  0  0  0  0  0  0  0
    5.1240   -5.8760   26.9050 C   0  0  0  0  0  0  0  0  0  0  0  0
    3.8100   -5.9490   27.2800 C   0  0  0  0  0  0  0  0  0  0  0  0
    2.9920   -6.8230   26.5360 O   0  0  0  0  0  0  0  0  0  0  0  0
    3.3210   -5.1850   28.3480 O   0  0  0  0  0  0  0  0  0  0  0  0
    2.8440   -3.9820   27.8520 C   0  0  0  0  0  0  0  0  0  0  0  0
    6.9280   -2.6410   23.2190 C   0  0  0  0  0  0  0  0  0  0  0  0
    7.6080   -3.1370   22.1150 C   0  0  0  0  0  0  0  0  0  0  0  0
  1  2  1  0
  2  3  2  0
  2  4  1  0
  4  5  1  0
  5  6  1  0
  6  7  1  0
  7  8  1  0
  8  9  2  0
  8 10  1  0
 10 11  1  0
 12 11  1  0
 12 13  1  0
 12 14  1  0
 12 15  1  0
 15 16  1  0
 16 17  2  0
 16 18  1  0
 18 19  1  0
  7 20  1  0
  4 21  1  0
 20 21  1  0
M  END
