piperidine-amides-4461-covalent
     RDKit          3D

 25 27  0  0  0  0  0  0  0  0999 V2000
    7.1150   -3.2600   19.2280 C   0  0  0  0  0  0  0  0  0  0  0  0
    6.3730   -4.0210   20.2530 C   0  0  0  0  0  0  0  0  0  0  0  0
    5.2920   -4.5440   19.8850 O   0  0  0  0  0  0  0  0  0  0  0  0
    6.8710   -4.2070   21.5710 N   0  0  0  0  0  0  0  0  0  0  0  0
    7.6590   -3.1680   22.1550 C   0  0  0  0  0  0  0  0  0  0  0  0
    7.3330   -2.9220   23.5480 C   0  0  0  0  0  0  0  0  0  0  0  0
    6.1370   -3.6620   23.9870 C   0  0  0  0  0  0  0  0  0  0  0  0
    5.6720   -3.2540   25.3560 C   0  0  0  0  0  0  0  0  0  0  0  0
    4.4890   -3.4830   25.6710 O   0  0  0  0  0  0  0  0  0  0  0  0
    6.5180   -2.6200   26.2870 N   0  0  0  0  0  0  0  0  0  0  0  0
    6.5010   -1.2660   26.7190 C   0  0  0  0  0  0  0  0  0  0  0  0
    5.3720   -0.6940   27.4510 C   0  0  0  0  0  0  0  0  0  0  0  0
    4.4010   -1.4130   28.0160 N   0  0  0  0  0  0  0  0  0  0  0  0
    3.5770   -0.5400   28.5750 N   0  0  0  0  0  0  0  0  0  0  0  0
    4.0270    0.7000   28.3650 N   0  0  0  0  0  0  0  0  0  0  0  0
    5.1550    0.6080   27.6580 N   0  0  0  0  0  0  0  0  0  0  0  0
    5.9990    1.6550   27.1930 C   0  0  0  0  0  0  0  0  0  0  0  0
    6.6650    2.4430   28.1120 C   0  0  0  0  0  0  0  0  0  0  0  0
    7.6180    3.6170   27.6630 C   0  0  0  0  0  0  0  0  0  0  0  0
    7.8160    3.8990   26.1630 C   0  0  0  0  0  0  0  0  0  0  0  0
    8.6790    4.9600   25.8630 F   0  0  0  0  0  0  0  0  0  0  0  0
    7.0200    2.9560   25.2640 C   0  0  0  0  0  0  0  0  0  0  0  0
    6.1540    1.8870   25.7650 C   0  0  0  0  0  0  0  0  0  0  0  0
    6.3390   -5.1470   23.7970 C   0  0  0  0  0  0  0  0  0  0  0  0
    6.4940   -5.4030   22.2830 C   0  0  0  0  0  0  0  0  0  0  0  0
  1  2  1  0
  2  3  2  0
  2  4  1  0
  4  5  1  0
  5  6  1  0
  6  7  1  0
  7  8  1  0
  8  9  2  0
  8 10  1  0
 10 11  1  0
 11 12  1  0
 12 13  2  0
 13 14  1  0
 14 15  2  0
 12 16  1  0
 15 16  1  0
 16 17  1  0
 17 18  2  0
 18 19  1  0
 19 20  2  0
 20 21  1  0
 20 22  1  0
 17 23  1  0
 22 23  2  0
  7 24  1  0
  4 25  1  0
 24 25  1  0
M  END
