piperidine-amides-11043-covalent
     RDKit          3D

 21 22  0  0  0  0  0  0  0  0999 V2000
    7.1620   -3.2850   19.2070 C   0  0  0  0  0  0  0  0  0  0  0  0
    6.3470   -3.9920   20.1910 C   0  0  0  0  0  0  0  0  0  0  0  0
    5.2470   -4.4510   19.8460 O   0  0  0  0  0  0  0  0  0  0  0  0
    6.8130   -4.2270   21.4880 N   0  0  0  0  0  0  0  0  0  0  0  0
    6.4600   -5.4170   22.2210 C   0  0  0  0  0  0  0  0  0  0  0  0
    5.7060   -4.9050   23.4120 C   0  0  0  0  0  0  0  0  0  0  0  0
    6.4820   -3.8470   24.1420 C   0  0  0  0  0  0  0  0  0  0  0  0
    5.8020   -3.3310   25.3480 C   0  0  0  0  0  0  0  0  0  0  0  0
    4.5850   -2.9710   25.3040 O   0  0  0  0  0  0  0  0  0  0  0  0
    6.4620   -3.2080   26.5860 N   0  0  0  0  0  0  0  0  0  0  0  0
    5.9700   -3.8610   27.8250 C   0  0  0  0  0  0  0  0  0  0  0  0
    5.6590   -5.3030   27.6120 C   0  0  0  0  0  0  0  0  0  0  0  0
    6.5630   -6.2680   28.2450 C   0  0  0  0  0  0  0  0  0  0  0  0
    5.5110   -5.7170   26.1740 C   0  0  0  0  0  0  0  0  0  0  0  0
    4.4350   -5.5290   28.1410 N   0  0  0  0  0  0  0  0  0  0  0  0
    4.4930   -5.4590   29.6030 C   0  0  0  0  0  0  0  0  0  0  0  0
    3.9050   -6.6910   30.1490 C   0  0  0  0  0  0  0  0  0  0  0  0
    3.7030   -7.5190   29.1080 C   0  0  0  0  0  0  0  0  0  0  0  0
    3.9810   -6.9050   27.8840 C   0  0  0  0  0  0  0  0  0  0  0  0
    6.8290   -2.6440   23.2580 C   0  0  0  0  0  0  0  0  0  0  0  0
    7.6540   -3.2320   22.1180 C   0  0  0  0  0  0  0  0  0  0  0  0
  1  2  1  0
  2  3  2  0
  2  4  1  0
  4  5  1  0
  5  6  1  0
  6  7  1  0
  7  8  1  0
  8  9  2  0
  8 10  1  0
 10 11  1  0
 12 11  1  0
 12 13  1  0
 12 14  1  0
 12 15  1  0
 15 16  1  0
 16 17  1  0
 17 18  1  0
 15 19  1  0
 18 19  1  0
  7 20  1  0
  4 21  1  0
 20 21  1  0
M  END
