piperidine-amides-21562-covalent
     RDKit          3D

 23 24  0  0  0  0  0  0  0  0999 V2000
    7.0260   -3.3040   19.3250 C   0  0  0  0  0  0  0  0  0  0  0  0
    6.3350   -4.1110   20.3420 C   0  0  0  0  0  0  0  0  0  0  0  0
    5.3210   -4.7410   19.9460 O   0  0  0  0  0  0  0  0  0  0  0  0
    6.8060   -4.2020   21.6630 N   0  0  0  0  0  0  0  0  0  0  0  0
    6.6950   -5.4560   22.3730 C   0  0  0  0  0  0  0  0  0  0  0  0
    6.1300   -5.1610   23.7310 C   0  0  0  0  0  0  0  0  0  0  0  0
    6.0120   -3.6790   23.9360 C   0  0  0  0  0  0  0  0  0  0  0  0
    5.5670   -3.3680   25.3250 C   0  0  0  0  0  0  0  0  0  0  0  0
    4.3370   -3.4320   25.5330 O   0  0  0  0  0  0  0  0  0  0  0  0
    6.3930   -2.9960   26.4130 N   0  0  0  0  0  0  0  0  0  0  0  0
    6.8920   -1.6430   26.4480 C   0  0  0  0  0  0  0  0  0  0  0  0
    6.2440   -3.7250   27.6730 C   0  0  2  0  0  0  0  0  0  0  0  0
    5.9080   -5.0500   27.4710 C   0  0  0  0  0  0  0  0  0  0  0  0
    5.2480   -3.0510   28.5830 C   0  0  0  0  0  0  0  0  0  0  0  0
    4.2790   -4.0160   28.7730 C   0  0  0  0  0  0  0  0  0  0  0  0
    3.1930   -3.7640   29.5610 C   0  0  0  0  0  0  0  0  0  0  0  0
    3.0340   -2.5580   30.1810 C   0  0  0  0  0  0  0  0  0  0  0  0
    4.0330   -1.4240   30.0440 C   0  0  0  0  0  0  0  0  0  0  0  0
    5.2320   -1.7790   29.1400 C   0  0  0  0  0  0  0  0  0  0  0  0
    6.1830   -1.0200   28.8710 O   0  0  0  0  0  0  0  0  0  0  0  0
    6.1090    0.2660   28.3490 C   0  0  0  0  0  0  0  0  0  0  0  0
    7.3050   -2.9810   23.6150 C   0  0  0  0  0  0  0  0  0  0  0  0
    7.6510   -3.1600   22.2820 C   0  0  0  0  0  0  0  0  0  0  0  0
  1  2  1  0
  2  3  2  0
  2  4  1  0
  4  5  1  0
  5  6  1  0
  6  7  1  0
  7  8  1  0
  8  9  2  0
  8 10  1  0
 10 11  1  0
 10 12  1  0
 12 13  1  6
 12 14  1  0
 14 15  2  0
 15 16  1  0
 16 17  2  0
 17 18  1  0
 14 19  1  0
 18 19  2  0
 19 20  1  0
 20 21  1  0
  7 22  1  0
  4 23  1  0
 22 23  1  0
M  END
