piperidine-amides-19058-covalent
     RDKit          3D

 22 24  0  0  0  0  0  0  0  0999 V2000
    7.0530   -3.3960   19.3380 C   0  0  0  0  0  0  0  0  0  0  0  0
    6.3970   -4.1720   20.3660 C   0  0  0  0  0  0  0  0  0  0  0  0
    5.3980   -4.8660   20.0000 O   0  0  0  0  0  0  0  0  0  0  0  0
    6.8440   -4.2420   21.7120 N   0  0  0  0  0  0  0  0  0  0  0  0
    6.7870   -5.5890   22.3510 C   0  0  0  0  0  0  0  0  0  0  0  0
    6.1810   -5.2570   23.7720 C   0  0  0  0  0  0  0  0  0  0  0  0
    6.0990   -3.7630   23.7750 C   0  0  0  0  0  0  0  0  0  0  0  0
    5.1150   -3.1390   24.8540 C   0  0  0  0  0  0  0  0  0  0  0  0
    4.0400   -2.9080   24.3390 O   0  0  0  0  0  0  0  0  0  0  0  0
    5.6420   -3.0280   25.9830 N   0  0  0  0  0  0  0  0  0  0  0  0
    6.0060   -2.3900   27.1070 C   0  0  0  0  0  0  0  0  0  0  0  0
    5.7810   -2.6570   28.3410 C   0  0  2  0  0  0  0  0  0  0  0  0
    6.8490   -2.5310   29.1840 C   0  0  0  0  0  0  0  0  0  0  0  0
    7.6700   -1.3220   29.0100 C   0  0  0  0  0  0  0  0  0  0  0  0
    5.9910   -4.0650   28.0200 C   0  0  0  0  0  0  0  0  0  0  0  0
    6.2610   -5.1540   29.0430 C   0  0  0  0  0  0  0  0  0  0  0  0
    6.4810   -6.6430   29.1100 C   0  0  0  0  0  0  0  0  0  0  0  0
    6.3080   -6.4840   27.7070 C   0  0  0  0  0  0  0  0  0  0  0  0
    6.1140   -5.1000   27.5980 C   0  0  0  0  0  0  0  0  0  0  0  0
    5.9150   -4.3900   26.6110 C   0  0  0  0  0  0  0  0  0  0  0  0
    7.4130   -3.0610   23.5570 C   0  0  0  0  0  0  0  0  0  0  0  0
    7.7230   -3.1980   22.2430 C   0  0  0  0  0  0  0  0  0  0  0  0
  1  2  1  0
  2  3  2  0
  2  4  1  0
  4  5  1  0
  5  6  1  0
  6  7  1  0
  7  8  1  0
  8  9  2  0
  8 10  1  0
 10 11  1  0
 11 12  1  0
 12 13  1  1
 13 14  1  0
 12 15  1  0
 15 16  1  0
 16 17  2  0
 17 18  1  0
 18 19  2  0
 10 20  1  0
 15 20  2  0
 19 20  1  0
  7 21  1  0
  4 22  1  0
 21 22  1  0
M  END
