piperidine-amides-4786-covalent
     RDKit          3D

 24 26  0  0  0  0  0  0  0  0999 V2000
    7.0980   -3.2740   19.2490 C   0  0  0  0  0  0  0  0  0  0  0  0
    6.3710   -4.0480   20.2800 C   0  0  0  0  0  0  0  0  0  0  0  0
    5.3180   -4.6080   19.9120 O   0  0  0  0  0  0  0  0  0  0  0  0
    6.8870   -4.1780   21.5840 N   0  0  0  0  0  0  0  0  0  0  0  0
    6.5960   -5.3510   22.3380 C   0  0  0  0  0  0  0  0  0  0  0  0
    6.0000   -5.0440   23.6370 C   0  0  0  0  0  0  0  0  0  0  0  0
    6.0630   -3.6040   23.9550 C   0  0  0  0  0  0  0  0  0  0  0  0
    5.5950   -3.3530   25.3440 C   0  0  0  0  0  0  0  0  0  0  0  0
    4.3930   -3.5700   25.5620 O   0  0  0  0  0  0  0  0  0  0  0  0
    6.4270   -2.8870   26.3840 N   0  0  0  0  0  0  0  0  0  0  0  0
    6.1770   -3.2400   27.8120 C   0  0  0  0  0  0  0  0  0  0  0  0
    5.1460   -2.3470   28.4540 C   0  0  0  0  0  0  0  0  0  0  0  0
    5.8110   -1.5260   29.4910 C   0  0  0  0  0  0  0  0  0  0  0  0
    5.1340   -0.9020   30.5150 C   0  0  0  0  0  0  0  0  0  0  0  0
    5.7670   -0.1400   31.4740 C   0  0  0  0  0  0  0  0  0  0  0  0
    7.1210    0.0090   31.4200 C   0  0  0  0  0  0  0  0  0  0  0  0
    7.8150   -0.6010   30.4130 C   0  0  0  0  0  0  0  0  0  0  0  0
    7.1760   -1.3510   29.4670 C   0  0  0  0  0  0  0  0  0  0  0  0
    4.4570   -1.5720   27.5030 C   0  0  0  0  0  0  0  0  0  0  0  0
    3.6070   -0.7710   28.3930 C   0  0  0  0  0  0  0  0  0  0  0  0
    3.1900   -1.8440   29.3490 C   0  0  0  0  0  0  0  0  0  0  0  0
    3.9530   -3.0750   28.9310 C   0  0  0  0  0  0  0  0  0  0  0  0
    7.3260   -2.9420   23.6170 C   0  0  0  0  0  0  0  0  0  0  0  0
    7.7560   -3.1630   22.1770 C   0  0  0  0  0  0  0  0  0  0  0  0
  1  2  1  0
  2  3  2  0
  2  4  1  0
  4  5  1  0
  5  6  1  0
  6  7  1  0
  7  8  1  0
  8  9  2  0
  8 10  1  0
 10 11  1  0
 12 11  1  0
 12 13  1  0
 13 14  2  0
 14 15  1  0
 15 16  2  0
 16 17  1  0
 13 18  1  0
 17 18  2  0
 12 19  1  0
 19 20  1  0
 20 21  1  0
 12 22  1  0
 21 22  1  0
  7 23  1  0
  4 24  1  0
 23 24  1  0
M  END
