piperidine-amides-2306-covalent
     RDKit          3D

 27 29  0  0  0  0  0  0  0  0999 V2000
    7.0530   -3.3470   19.3570 C   0  0  0  0  0  0  0  0  0  0  0  0
    6.3410   -4.1690   20.3710 C   0  0  0  0  0  0  0  0  0  0  0  0
    5.3770   -4.8260   19.9780 O   0  0  0  0  0  0  0  0  0  0  0  0
    6.8020   -4.2030   21.6930 N   0  0  0  0  0  0  0  0  0  0  0  0
    7.6960   -3.1840   22.1930 C   0  0  0  0  0  0  0  0  0  0  0  0
    7.3810   -2.9240   23.6300 C   0  0  0  0  0  0  0  0  0  0  0  0
    6.0190   -3.5360   23.9150 C   0  0  0  0  0  0  0  0  0  0  0  0
    5.6190   -3.1490   25.2820 C   0  0  0  0  0  0  0  0  0  0  0  0
    4.4200   -3.0790   25.5780 O   0  0  0  0  0  0  0  0  0  0  0  0
    6.6000   -2.8610   26.2440 N   0  0  0  0  0  0  0  0  0  0  0  0
    6.4940   -1.6900   27.0860 C   0  0  0  0  0  0  0  0  0  0  0  0
    5.8630   -0.4250   26.6270 C   0  0  0  0  0  0  0  0  0  0  0  0
    5.7180    0.7200   27.3330 C   0  0  0  0  0  0  0  0  0  0  0  0
    6.1950    0.7470   28.6160 C   0  0  0  0  0  0  0  0  0  0  0  0
    6.8160   -0.3540   29.2000 C   0  0  0  0  0  0  0  0  0  0  0  0
    7.3450   -0.3570   30.6220 C   0  0  0  0  0  0  0  0  0  0  0  0
    7.8410    1.0520   30.5490 C   0  0  0  0  0  0  0  0  0  0  0  0
    6.9460    1.7470   31.5430 C   0  0  0  0  0  0  0  0  0  0  0  0
    7.1750    0.9130   32.7630 C   0  0  0  0  0  0  0  0  0  0  0  0
    5.9720    0.2960   33.4110 C   0  0  0  0  0  0  0  0  0  0  0  0
    6.0800   -0.5640   34.6430 C   0  0  0  0  0  0  0  0  0  0  0  0
    7.4390   -0.7590   35.1710 C   0  0  0  0  0  0  0  0  0  0  0  0
    8.6030   -0.1100   34.4730 C   0  0  0  0  0  0  0  0  0  0  0  0
    8.4210    0.6710   33.3360 C   0  0  0  0  0  0  0  0  0  0  0  0
    6.9760   -1.5400   28.4890 C   0  0  0  0  0  0  0  0  0  0  0  0
    5.9850   -5.0680   23.8060 C   0  0  0  0  0  0  0  0  0  0  0  0
    6.6070   -5.4260   22.4510 C   0  0  0  0  0  0  0  0  0  0  0  0
  1  2  1  0
  2  3  2  0
  2  4  1  0
  4  5  1  0
  5  6  1  0
  6  7  1  0
  7  8  1  0
  8  9  2  0
  8 10  1  0
 10 11  1  0
 11 12  2  0
 12 13  1  0
 13 14  2  0
 14 15  1  0
 15 16  1  0
 16 17  1  0
 17 18  1  0
 18 19  1  0
 19 20  2  0
 20 21  1  0
 21 22  2  0
 22 23  1  0
 19 24  1  0
 23 24  2  0
 11 25  1  0
 15 25  2  0
  7 26  1  0
  4 27  1  0
 26 27  1  0
M  END
