piperidine-amides-7346-covalent
     RDKit          3D

 20 21  0  0  0  0  0  0  0  0999 V2000
    7.1100   -3.2880   19.2590 C   0  0  0  0  0  0  0  0  0  0  0  0
    6.3780   -4.0660   20.2660 C   0  0  0  0  0  0  0  0  0  0  0  0
    5.2850   -4.5670   19.8920 O   0  0  0  0  0  0  0  0  0  0  0  0
    6.9030   -4.2830   21.5430 N   0  0  0  0  0  0  0  0  0  0  0  0
    6.5430   -5.4370   22.3200 C   0  0  0  0  0  0  0  0  0  0  0  0
    5.7990   -4.9620   23.5380 C   0  0  0  0  0  0  0  0  0  0  0  0
    6.5200   -3.8420   24.2540 C   0  0  0  0  0  0  0  0  0  0  0  0
    5.6990   -3.3330   25.3840 C   0  0  0  0  0  0  0  0  0  0  0  0
    4.7030   -2.6380   25.0920 O   0  0  0  0  0  0  0  0  0  0  0  0
    5.9600   -3.5730   26.7580 N   0  0  0  0  0  0  0  0  0  0  0  0
    6.0370   -4.9100   27.3110 C   0  0  0  0  0  0  0  0  0  0  0  0
    4.7920   -5.4130   28.0280 C   0  0  1  0  0  0  0  0  0  0  0  0
    4.1450   -4.5410   28.6580 O   0  0  0  0  0  0  0  0  0  0  0  0
    3.7850   -6.0010   27.2840 C   0  0  0  0  0  0  0  0  0  0  0  0
    2.8700   -6.8810   27.8340 C   0  0  0  0  0  0  0  0  0  0  0  0
    2.9750   -7.1580   29.1840 C   0  0  0  0  0  0  0  0  0  0  0  0
    4.0820   -6.6510   29.8350 O   0  0  0  0  0  0  0  0  0  0  0  0
    5.1760   -6.2990   29.0480 C   0  0  0  0  0  0  0  0  0  0  0  0
    6.7920   -2.6480   23.3480 C   0  0  0  0  0  0  0  0  0  0  0  0
    7.5870   -3.1510   22.1740 C   0  0  0  0  0  0  0  0  0  0  0  0
  1  2  1  0
  2  3  2  0
  2  4  1  0
  4  5  1  0
  5  6  1  0
  6  7  1  0
  7  8  1  0
  8  9  2  0
  8 10  1  0
 10 11  1  0
 11 12  1  0
 12 13  1  1
 12 14  1  0
 14 15  1  0
 15 16  1  0
 16 17  1  0
 12 18  1  0
 17 18  1  0
  7 19  1  0
  4 20  1  0
 19 20  1  0
M  END
