piperidine-amides-7290-covalent
     RDKit          3D

 21 22  0  0  0  0  0  0  0  0999 V2000
    7.0650   -3.3520   19.3130 C   0  0  0  0  0  0  0  0  0  0  0  0
    6.4030   -4.2010   20.3090 C   0  0  0  0  0  0  0  0  0  0  0  0
    5.3300   -4.7480   19.9470 O   0  0  0  0  0  0  0  0  0  0  0  0
    6.9760   -4.4260   21.5630 N   0  0  0  0  0  0  0  0  0  0  0  0
    6.5800   -5.5400   22.3830 C   0  0  0  0  0  0  0  0  0  0  0  0
    5.7900   -4.9990   23.5450 C   0  0  0  0  0  0  0  0  0  0  0  0
    6.5080   -3.8740   24.2540 C   0  0  0  0  0  0  0  0  0  0  0  0
    5.6350   -3.3490   25.3400 C   0  0  0  0  0  0  0  0  0  0  0  0
    4.4050   -3.3000   25.1150 O   0  0  0  0  0  0  0  0  0  0  0  0
    6.0920   -2.9120   26.6080 N   0  0  0  0  0  0  0  0  0  0  0  0
    6.3110   -1.5050   26.8960 C   0  0  0  0  0  0  0  0  0  0  0  0
    6.7230   -0.8940   25.5680 C   0  0  0  0  0  0  0  0  0  0  0  0
    5.9520   -1.1120   24.6050 O   0  0  0  0  0  0  0  0  0  0  0  0
    5.0700   -0.7800   27.2070 C   0  0  0  0  0  0  0  0  0  0  0  0
    5.0230    0.6050   27.2110 C   0  0  0  0  0  0  0  0  0  0  0  0
    5.9810    1.2980   27.9260 C   0  0  0  0  0  0  0  0  0  0  0  0
    6.3690    0.7840   29.1400 C   0  0  0  0  0  0  0  0  0  0  0  0
    6.6210   -0.5680   29.2370 C   0  0  0  0  0  0  0  0  0  0  0  0
    7.1290   -1.3120   28.0270 C   0  0  0  0  0  0  0  0  0  0  0  0
    6.8690   -2.7730   23.3220 C   0  0  0  0  0  0  0  0  0  0  0  0
    7.6640   -3.2810   22.1530 C   0  0  0  0  0  0  0  0  0  0  0  0
  1  2  1  0
  2  3  2  0
  2  4  1  0
  4  5  1  0
  5  6  1  0
  6  7  1  0
  7  8  1  0
  8  9  2  0
  8 10  1  0
 11 10  1  0
 11 12  1  0
 12 13  1  0
 11 14  1  0
 14 15  1  0
 15 16  1  0
 16 17  1  0
 17 18  1  0
 11 19  1  0
 18 19  1  0
  7 20  1  0
  4 21  1  0
 20 21  1  0
M  END
