piperidine-amides-17035-covalent
     RDKit          3D

 20 21  0  0  0  0  0  0  0  0999 V2000
    7.1900   -3.2540   19.1590 C   0  0  0  0  0  0  0  0  0  0  0  0
    6.4170   -3.9970   20.1630 C   0  0  0  0  0  0  0  0  0  0  0  0
    5.2840   -4.4190   19.8330 O   0  0  0  0  0  0  0  0  0  0  0  0
    6.9670   -4.2870   21.4270 N   0  0  0  0  0  0  0  0  0  0  0  0
    7.6450   -3.2180   22.0810 C   0  0  0  0  0  0  0  0  0  0  0  0
    7.1400   -2.8740   23.3970 C   0  0  0  0  0  0  0  0  0  0  0  0
    6.3870   -3.9240   24.1030 C   0  0  0  0  0  0  0  0  0  0  0  0
    5.6310   -3.2970   25.2130 C   0  0  0  0  0  0  0  0  0  0  0  0
    4.4120   -3.0730   25.0940 O   0  0  0  0  0  0  0  0  0  0  0  0
    6.2780   -2.9600   26.3970 N   0  0  0  0  0  0  0  0  0  0  0  0
    6.7080   -1.6650   26.7850 C   0  0  0  0  0  0  0  0  0  0  0  0
    6.0230   -3.8910   27.4610 C   0  0  0  0  0  0  0  0  0  0  0  0
    6.5220   -3.5410   28.8460 C   0  0  0  0  0  0  0  0  0  0  0  0
    5.6900   -2.3610   29.1400 N   0  0  0  0  0  0  0  0  0  0  0  0
    4.3420   -2.7730   29.3870 C   0  0  0  0  0  0  0  0  0  0  0  0
    6.2800   -1.2700   29.8300 C   0  0  0  0  0  0  0  0  0  0  0  0
    6.0860    0.0070   29.2930 C   0  0  0  0  0  0  0  0  0  0  0  0
    5.2860   -0.4200   30.6410 C   0  0  0  0  0  0  0  0  0  0  0  0
    5.5050   -4.8070   23.2610 C   0  0  0  0  0  0  0  0  0  0  0  0
    6.4220   -5.3660   22.2030 C   0  0  0  0  0  0  0  0  0  0  0  0
  1  2  1  0
  2  3  2  0
  2  4  1  0
  4  5  1  0
  5  6  1  0
  6  7  1  0
  7  8  1  0
  8  9  2  0
  8 10  1  0
 10 11  1  0
 10 12  1  0
 12 13  1  0
 13 14  1  0
 14 15  1  0
 14 16  1  0
 16 17  1  0
 16 18  1  0
 17 18  1  0
  7 19  1  0
  4 20  1  0
 19 20  1  0
M  END
