piperidine-amides-26188-covalent
     RDKit          3D

 25 27  0  0  0  0  0  0  0  0999 V2000
    7.0420   -3.3650   19.4050 C   0  0  0  0  0  0  0  0  0  0  0  0
    6.3870   -4.2450   20.3730 C   0  0  0  0  0  0  0  0  0  0  0  0
    5.3920   -4.8910   19.9970 O   0  0  0  0  0  0  0  0  0  0  0  0
    6.8710   -4.4310   21.6880 N   0  0  0  0  0  0  0  0  0  0  0  0
    6.4510   -5.5390   22.4930 C   0  0  0  0  0  0  0  0  0  0  0  0
    5.5470   -4.9340   23.5450 C   0  0  0  0  0  0  0  0  0  0  0  0
    6.2040   -3.8610   24.3940 C   0  0  0  0  0  0  0  0  0  0  0  0
    5.2590   -3.2790   25.4210 C   0  0  0  0  0  0  0  0  0  0  0  0
    4.4760   -2.3560   25.0720 O   0  0  0  0  0  0  0  0  0  0  0  0
    5.1560   -3.6890   26.7960 N   0  0  0  0  0  0  0  0  0  0  0  0
    4.7380   -2.7440   27.8550 C   0  0  0  0  0  0  0  0  0  0  0  0
    4.3320   -3.4360   29.1340 C   0  0  0  0  0  0  0  0  0  0  0  0
    4.8990   -4.6480   29.2970 N   0  0  0  0  0  0  0  0  0  0  0  0
    4.3000   -5.7600   29.9490 C   0  0  0  0  0  0  0  0  0  0  0  0
    3.7060   -5.1240   31.1830 C   0  0  0  0  0  0  0  0  0  0  0  0
    2.3190   -4.8600   31.2810 N   0  0  0  0  0  0  0  0  0  0  0  0
    5.2750   -6.8180   30.4030 C   0  0  0  0  0  0  0  0  0  0  0  0
    4.4310   -7.1560   31.5920 C   0  0  0  0  0  0  0  0  0  0  0  0
    3.2130   -7.7220   31.2930 C   0  0  0  0  0  0  0  0  0  0  0  0
    2.7200   -7.5790   29.9940 C   0  0  0  0  0  0  0  0  0  0  0  0
    3.4130   -6.5000   29.2110 C   0  0  0  0  0  0  0  0  0  0  0  0
    5.9600   -5.1250   28.4750 C   0  0  0  0  0  0  0  0  0  0  0  0
    6.2120   -4.4990   27.1730 C   0  0  0  0  0  0  0  0  0  0  0  0
    6.8440   -2.8040   23.5240 C   0  0  0  0  0  0  0  0  0  0  0  0
    7.5350   -3.3280   22.3130 C   0  0  0  0  0  0  0  0  0  0  0  0
  1  2  1  0
  2  3  2  0
  2  4  1  0
  4  5  1  0
  5  6  1  0
  6  7  1  0
  7  8  1  0
  8  9  2  0
  8 10  1  0
 10 11  1  0
 11 12  1  0
 12 13  1  0
 13 14  1  0
 14 15  1  0
 15 16  3  0
 14 17  1  0
 17 18  1  0
 18 19  1  0
 19 20  1  0
 14 21  1  0
 20 21  1  0
 13 22  1  0
 10 23  1  0
 22 23  1  0
  7 24  1  0
  4 25  1  0
 24 25  1  0
M  END
