piperidine-amides-2966-covalent
     RDKit          3D

 23 24  0  0  0  0  0  0  0  0999 V2000
    7.0870   -3.2660   19.2180 C   0  0  0  0  0  0  0  0  0  0  0  0
    6.2770   -4.0490   20.1480 C   0  0  0  0  0  0  0  0  0  0  0  0
    5.1830   -4.4940   19.8310 O   0  0  0  0  0  0  0  0  0  0  0  0
    6.8020   -4.3340   21.4320 N   0  0  0  0  0  0  0  0  0  0  0  0
    7.4710   -3.2700   22.0810 C   0  0  0  0  0  0  0  0  0  0  0  0
    6.5600   -2.7530   23.1320 C   0  0  0  0  0  0  0  0  0  0  0  0
    6.1440   -3.9520   23.9550 C   0  0  0  0  0  0  0  0  0  0  0  0
    5.3060   -3.4460   25.0590 C   0  0  0  0  0  0  0  0  0  0  0  0
    4.3430   -4.0620   25.5490 O   0  0  0  0  0  0  0  0  0  0  0  0
    5.6270   -2.1780   25.5510 N   0  0  0  0  0  0  0  0  0  0  0  0
    6.7600   -2.0600   26.4100 C   0  0  0  0  0  0  0  0  0  0  0  0
    8.0120   -2.3850   25.6320 C   0  0  1  0  0  0  0  0  0  0  0  0
    8.5280   -3.5830   25.9160 C   0  0  0  0  0  0  0  0  0  0  0  0
    9.8390   -3.9820   25.6680 C   0  0  0  0  0  0  0  0  0  0  0  0
   10.2800   -5.2120   25.9750 C   0  0  0  0  0  0  0  0  0  0  0  0
    9.4720   -6.2130   26.5780 C   0  0  0  0  0  0  0  0  0  0  0  0
    8.2380   -5.8730   26.8470 N   0  0  0  0  0  0  0  0  0  0  0  0
    7.7750   -4.5760   26.5130 C   0  0  0  0  0  0  0  0  0  0  0  0
    8.1430   -2.2930   24.1790 C   0  0  0  0  0  0  0  0  0  0  0  0
    9.0790   -3.1580   23.6120 C   0  0  0  0  0  0  0  0  0  0  0  0
    9.3960   -1.7490   23.6310 C   0  0  0  0  0  0  0  0  0  0  0  0
    5.4380   -5.0060   23.1190 C   0  0  0  0  0  0  0  0  0  0  0  0
    6.3730   -5.4800   22.1950 C   0  0  0  0  0  0  0  0  0  0  0  0
  1  2  1  0
  2  3  2  0
  2  4  1  0
  4  5  1  0
  5  6  1  0
  6  7  1  0
  7  8  1  0
  8  9  2  0
  8 10  1  0
 10 11  1  0
 12 11  1  6
 12 13  1  0
 13 14  2  0
 14 15  1  0
 15 16  2  0
 16 17  1  0
 13 18  1  0
 17 18  2  0
 12 19  1  0
 19 20  1  0
 19 21  1  0
  7 22  1  0
  4 23  1  0
 22 23  1  0
M  END
