piperidine-amides-3237-covalent
     RDKit          3D

 22 24  0  0  0  0  0  0  0  0999 V2000
    7.0540   -3.3190   19.3470 C   0  0  0  0  0  0  0  0  0  0  0  0
    6.3560   -4.1480   20.3250 C   0  0  0  0  0  0  0  0  0  0  0  0
    5.3910   -4.8270   19.9770 O   0  0  0  0  0  0  0  0  0  0  0  0
    6.8150   -4.2060   21.6900 N   0  0  0  0  0  0  0  0  0  0  0  0
    7.6960   -3.1830   22.2130 C   0  0  0  0  0  0  0  0  0  0  0  0
    7.3960   -2.9080   23.6580 C   0  0  0  0  0  0  0  0  0  0  0  0
    6.0810   -3.5900   23.9640 C   0  0  0  0  0  0  0  0  0  0  0  0
    5.6090   -3.2700   25.3430 C   0  0  0  0  0  0  0  0  0  0  0  0
    4.3990   -3.2640   25.6530 O   0  0  0  0  0  0  0  0  0  0  0  0
    6.5680   -2.9620   26.3310 N   0  0  0  0  0  0  0  0  0  0  0  0
    6.4980   -1.7270   27.0810 C   0  0  0  0  0  0  0  0  0  0  0  0
    7.0520   -1.6110   28.4660 C   0  0  0  0  0  0  0  0  0  0  0  0
    6.9790   -0.4300   29.1690 C   0  0  0  0  0  0  0  0  0  0  0  0
    6.3740    0.6990   28.5850 C   0  0  0  0  0  0  0  0  0  0  0  0
    5.8360    0.7120   27.3350 C   0  0  0  0  0  0  0  0  0  0  0  0
    5.8620   -0.4870   26.5050 C   0  0  0  0  0  0  0  0  0  0  0  0
    5.3080    1.9790   27.0400 N   0  0  0  0  0  0  0  0  0  0  0  0
    5.5440    2.7130   28.1320 N   0  0  0  0  0  0  0  0  0  0  0  0
    6.1770    1.9510   29.0450 N   0  0  0  0  0  0  0  0  0  0  0  0
    6.5770    2.2940   30.2280 O   0  0  0  0  0  0  0  0  0  0  0  0
    6.0920   -5.0830   23.7300 C   0  0  0  0  0  0  0  0  0  0  0  0
    6.6450   -5.4150   22.5040 C   0  0  0  0  0  0  0  0  0  0  0  0
  1  2  1  0
  2  3  2  0
  2  4  1  0
  4  5  1  0
  5  6  1  0
  6  7  1  0
  7  8  1  0
  8  9  2  0
  8 10  1  0
 10 11  1  0
 11 12  2  0
 12 13  1  0
 13 14  2  0
 14 15  1  0
 11 16  1  0
 15 16  2  0
 15 17  1  0
 17 18  2  0
 14 19  1  0
 18 19  1  0
 19 20  1  0
  7 21  1  0
  4 22  1  0
 21 22  1  0
M  END
