piperidine-amides-33488-covalent
     RDKit          3D

 30 33  0  0  0  0  0  0  0  0999 V2000
    7.0690   -3.3300   19.2910 C   0  0  0  0  0  0  0  0  0  0  0  0
    6.3910   -4.1610   20.2960 C   0  0  0  0  0  0  0  0  0  0  0  0
    5.3380   -4.7410   19.9470 O   0  0  0  0  0  0  0  0  0  0  0  0
    6.9470   -4.3370   21.5810 N   0  0  0  0  0  0  0  0  0  0  0  0
    6.5110   -5.4360   22.3580 C   0  0  0  0  0  0  0  0  0  0  0  0
    5.8730   -5.0650   23.6200 C   0  0  0  0  0  0  0  0  0  0  0  0
    6.5480   -4.0180   24.4310 C   0  0  0  0  0  0  0  0  0  0  0  0
    5.5370   -3.3470   25.3210 C   0  0  0  0  0  0  0  0  0  0  0  0
    4.5080   -2.8710   24.8070 O   0  0  0  0  0  0  0  0  0  0  0  0
    5.6910   -3.2400   26.7180 N   0  0  0  0  0  0  0  0  0  0  0  0
    5.2170   -4.1410   27.6650 C   0  0  0  0  0  0  0  0  0  0  0  0
    5.5580   -3.8750   29.0550 C   0  0  2  0  0  0  0  0  0  0  0  0
    4.2440   -3.7200   29.8410 C   0  0  0  0  0  0  0  0  0  0  0  0
    3.5010   -4.6490   30.5230 C   0  0  0  0  0  0  0  0  0  0  0  0
    2.1740   -4.1740   31.2400 C   0  0  0  0  0  0  0  0  0  0  0  0
    1.7630   -2.6820   31.1500 C   0  0  0  0  0  0  0  0  0  0  0  0
    2.7450   -1.8350   30.3400 C   0  0  0  0  0  0  0  0  0  0  0  0
    3.9610   -2.3120   29.6910 C   0  0  0  0  0  0  0  0  0  0  0  0
    6.1440   -2.7650   29.3370 O   0  0  0  0  0  0  0  0  0  0  0  0
    7.0090   -2.5150   28.2250 C   0  0  1  0  0  0  0  0  0  0  0  0
    7.7190   -3.7120   27.7610 C   0  0  0  0  0  0  0  0  0  0  0  0
    8.2210   -3.4560   26.3860 C   0  0  0  0  0  0  0  0  0  0  0  0
    8.9300   -4.4270   25.7150 C   0  0  0  0  0  0  0  0  0  0  0  0
    9.1340   -5.5910   26.3780 C   0  0  0  0  0  0  0  0  0  0  0  0
    9.8150   -6.5520   25.8050 F   0  0  0  0  0  0  0  0  0  0  0  0
    8.5930   -5.7790   27.7410 C   0  0  0  0  0  0  0  0  0  0  0  0
    7.9070   -4.8600   28.4030 C   0  0  0  0  0  0  0  0  0  0  0  0
    6.3250   -2.0380   27.1490 C   0  0  0  0  0  0  0  0  0  0  0  0
    7.2800   -2.9920   23.6400 C   0  0  0  0  0  0  0  0  0  0  0  0
    7.6810   -3.3050   22.2510 C   0  0  0  0  0  0  0  0  0  0  0  0
  1  2  1  0
  2  3  2  0
  2  4  1  0
  4  5  1  0
  5  6  1  0
  6  7  1  0
  7  8  1  0
  8  9  2  0
  8 10  1  0
 10 11  1  0
 11 12  1  0
 12 13  1  1
 13 14  2  0
 14 15  1  0
 15 16  2  0
 16 17  1  0
 13 18  1  0
 17 18  2  0
 12 19  1  0
 19 20  1  0
 20 21  1  6
 21 22  2  0
 22 23  1  0
 23 24  2  0
 24 25  1  0
 24 26  1  0
 21 27  1  0
 26 27  2  0
 10 28  1  0
 20 28  1  0
  7 29  1  0
  4 30  1  0
 29 30  1  0
M  END
