piperidine-amides-10732-covalent
     RDKit          3D

 22 23  0  0  0  0  0  0  0  0999 V2000
    7.1190   -3.2630   19.1770 C   0  0  0  0  0  0  0  0  0  0  0  0
    6.3340   -3.9850   20.1810 C   0  0  0  0  0  0  0  0  0  0  0  0
    5.2490   -4.4920   19.8550 O   0  0  0  0  0  0  0  0  0  0  0  0
    6.8050   -4.1730   21.4860 N   0  0  0  0  0  0  0  0  0  0  0  0
    6.4950   -5.3390   22.2750 C   0  0  0  0  0  0  0  0  0  0  0  0
    5.8500   -4.8080   23.5310 C   0  0  0  0  0  0  0  0  0  0  0  0
    6.7340   -3.8010   24.2140 C   0  0  0  0  0  0  0  0  0  0  0  0
    6.1420   -3.2320   25.4410 C   0  0  0  0  0  0  0  0  0  0  0  0
    4.8880   -3.0310   25.5310 O   0  0  0  0  0  0  0  0  0  0  0  0
    6.9600   -2.8790   26.5370 N   0  0  0  0  0  0  0  0  0  0  0  0
    6.6780   -3.3670   27.9050 C   0  0  0  0  0  0  0  0  0  0  0  0
    6.4540   -4.8300   27.8850 C   0  0  1  0  0  0  0  0  0  0  0  0
    7.7090   -5.5810   27.9980 C   0  0  0  0  0  0  0  0  0  0  0  0
    7.5260   -6.5780   28.7040 O   0  0  0  0  0  0  0  0  0  0  0  0
    8.8670   -5.3170   27.4690 O   0  0  0  0  0  0  0  0  0  0  0  0
    9.3070   -5.9340   26.2860 C   0  0  0  0  0  0  0  0  0  0  0  0
    5.7200   -5.2840   29.0920 C   0  0  0  0  0  0  0  0  0  0  0  0
    4.9610   -6.4550   28.6540 C   0  0  0  0  0  0  0  0  0  0  0  0
    5.0020   -6.4850   27.2970 O   0  0  0  0  0  0  0  0  0  0  0  0
    5.5650   -5.2750   26.9100 C   0  0  0  0  0  0  0  0  0  0  0  0
    7.0740   -2.6540   23.3050 C   0  0  0  0  0  0  0  0  0  0  0  0
    7.7160   -3.1980   22.0620 C   0  0  0  0  0  0  0  0  0  0  0  0
  1  2  1  0
  2  3  2  0
  2  4  1  0
  4  5  1  0
  5  6  1  0
  6  7  1  0
  7  8  1  0
  8  9  2  0
  8 10  1  0
 10 11  1  0
 12 11  1  1
 12 13  1  0
 13 14  2  0
 13 15  1  0
 15 16  1  0
 12 17  1  0
 17 18  1  0
 18 19  1  0
 12 20  1  0
 19 20  1  0
  7 21  1  0
  4 22  1  0
 21 22  1  0
M  END
