piperidine-amides-27498-covalent
     RDKit          3D

 26 29  0  0  0  0  0  0  0  0999 V2000
    7.1580   -3.3170   19.2260 C   0  0  0  0  0  0  0  0  0  0  0  0
    6.4010   -4.0870   20.2070 C   0  0  0  0  0  0  0  0  0  0  0  0
    5.2660   -4.5000   19.8660 O   0  0  0  0  0  0  0  0  0  0  0  0
    6.9860   -4.3960   21.4240 N   0  0  0  0  0  0  0  0  0  0  0  0
    6.6850   -5.6310   22.0840 C   0  0  0  0  0  0  0  0  0  0  0  0
    5.7580   -5.2810   23.1940 C   0  0  0  0  0  0  0  0  0  0  0  0
    6.3740   -4.2550   24.0970 C   0  0  0  0  0  0  0  0  0  0  0  0
    5.3300   -3.7640   24.9850 C   0  0  0  0  0  0  0  0  0  0  0  0
    4.2160   -3.4710   24.5190 O   0  0  0  0  0  0  0  0  0  0  0  0
    5.5360   -3.5940   26.3260 N   0  0  0  0  0  0  0  0  0  0  0  0
    4.4520   -3.1060   27.1610 C   0  0  0  0  0  0  0  0  0  0  0  0
    4.6160   -3.5660   28.5870 C   0  0  0  0  0  0  0  0  0  0  0  0
    5.8300   -3.4350   29.0810 C   0  0  0  0  0  0  0  0  0  0  0  0
    6.1090   -2.1800   29.5940 N   0  0  0  0  0  0  0  0  0  0  0  0
    7.1520   -1.3960   29.1690 C   0  0  0  0  0  0  0  0  0  0  0  0
    7.2460   -0.1860   29.8020 N   0  0  0  0  0  0  0  0  0  0  0  0
    6.1490   -0.2380   30.7040 C   0  0  0  0  0  0  0  0  0  0  0  0
    5.7550    0.7370   31.6140 C   0  0  0  0  0  0  0  0  0  0  0  0
    4.6550    0.5290   32.4220 C   0  0  0  0  0  0  0  0  0  0  0  0
    3.9000   -0.7710   32.2990 C   0  0  0  0  0  0  0  0  0  0  0  0
    4.2740   -1.7660   31.3980 N   0  0  0  0  0  0  0  0  0  0  0  0
    5.3910   -1.5120   30.5960 C   0  0  0  0  0  0  0  0  0  0  0  0
    6.7380   -3.7160   28.2200 C   0  0  0  0  0  0  0  0  0  0  0  0
    6.5010   -2.8240   27.0260 C   0  0  0  0  0  0  0  0  0  0  0  0
    7.0020   -3.0760   23.4330 C   0  0  0  0  0  0  0  0  0  0  0  0
    7.6960   -3.3750   22.1390 C   0  0  0  0  0  0  0  0  0  0  0  0
  1  2  1  0
  2  3  2  0
  2  4  1  0
  4  5  1  0
  5  6  1  0
  6  7  1  0
  7  8  1  0
  8  9  2  0
  8 10  1  0
 10 11  1  0
 11 12  1  0
 12 13  1  0
 13 14  1  0
 14 15  1  0
 15 16  2  0
 16 17  1  0
 17 18  1  0
 18 19  2  0
 19 20  1  0
 20 21  2  0
 14 22  1  0
 17 22  2  0
 21 22  1  0
 13 23  1  0
 10 24  1  0
 23 24  1  0
  7 25  1  0
  4 26  1  0
 25 26  1  0
M  END
