piperidine-amides-13391-covalent
     RDKit          3D

 21 22  0  0  0  0  0  0  0  0999 V2000
    7.0930   -3.2690   19.2500 C   0  0  0  0  0  0  0  0  0  0  0  0
    6.3450   -4.0590   20.2720 C   0  0  0  0  0  0  0  0  0  0  0  0
    5.3100   -4.6520   19.9200 O   0  0  0  0  0  0  0  0  0  0  0  0
    6.8360   -4.1590   21.5940 N   0  0  0  0  0  0  0  0  0  0  0  0
    6.6930   -5.3780   22.3650 C   0  0  0  0  0  0  0  0  0  0  0  0
    6.1370   -5.0220   23.7530 C   0  0  0  0  0  0  0  0  0  0  0  0
    6.1490   -3.5380   23.8840 C   0  0  0  0  0  0  0  0  0  0  0  0
    5.6310   -3.0190   25.1730 C   0  0  0  0  0  0  0  0  0  0  0  0
    4.5580   -2.4120   25.1150 O   0  0  0  0  0  0  0  0  0  0  0  0
    6.3050   -3.2230   26.3770 N   0  0  0  0  0  0  0  0  0  0  0  0
    5.9580   -4.2280   27.3120 C   0  0  0  0  0  0  0  0  0  0  0  0
    5.6720   -5.5100   26.8950 C   0  0  0  0  0  0  0  0  0  0  0  0
    5.9900   -6.4330   27.9600 O   0  0  0  0  0  0  0  0  0  0  0  0
    5.1430   -6.3910   29.0390 C   0  0  0  0  0  0  0  0  0  0  0  0
    5.5870   -5.4750   29.9310 C   0  0  0  0  0  0  0  0  0  0  0  0
    3.7980   -5.8550   28.6230 C   0  0  0  0  0  0  0  0  0  0  0  0
    2.6330   -6.5320   29.3450 C   0  0  0  0  0  0  0  0  0  0  0  0
    3.4210   -7.6610   29.9570 C   0  0  0  0  0  0  0  0  0  0  0  0
    4.7580   -7.5540   29.6640 C   0  0  0  0  0  0  0  0  0  0  0  0
    7.4690   -2.9320   23.5850 C   0  0  0  0  0  0  0  0  0  0  0  0
    7.7130   -3.1140   22.1030 C   0  0  0  0  0  0  0  0  0  0  0  0
  1  2  1  0
  2  3  2  0
  2  4  1  0
  4  5  1  0
  5  6  1  0
  6  7  1  0
  7  8  1  0
  8  9  2  0
  8 10  1  0
 10 11  1  0
 11 12  1  0
 12 13  1  0
 14 13  1  0
 14 15  1  0
 14 16  1  0
 16 17  1  0
 17 18  1  0
 14 19  1  0
 18 19  1  0
  7 20  1  0
  4 21  1  0
 20 21  1  0
M  END
