piperidine-amides-30456-covalent
     RDKit          3D

 27 30  0  0  0  0  0  0  0  0999 V2000
    7.0190   -3.3630   19.3640 C   0  0  0  0  0  0  0  0  0  0  0  0
    6.3680   -4.2180   20.3570 C   0  0  0  0  0  0  0  0  0  0  0  0
    5.4140   -4.9270   20.0030 O   0  0  0  0  0  0  0  0  0  0  0  0
    6.8390   -4.2750   21.6850 N   0  0  0  0  0  0  0  0  0  0  0  0
    7.5770   -3.2010   22.2890 C   0  0  0  0  0  0  0  0  0  0  0  0
    7.5170   -3.3600   23.7950 C   0  0  0  0  0  0  0  0  0  0  0  0
    6.3420   -4.1400   24.3740 C   0  0  0  0  0  0  0  0  0  0  0  0
    5.4330   -3.2910   25.2170 C   0  0  0  0  0  0  0  0  0  0  0  0
    4.7120   -2.4240   24.6580 O   0  0  0  0  0  0  0  0  0  0  0  0
    5.2580   -3.3730   26.6380 N   0  0  0  0  0  0  0  0  0  0  0  0
    4.0870   -4.0410   27.1760 C   0  0  0  0  0  0  0  0  0  0  0  0
    4.6600   -5.1470   27.9640 C   0  0  2  0  0  0  0  0  0  0  0  0
    4.1350   -5.1080   29.3560 C   0  0  0  0  0  0  0  0  0  0  0  0
    3.9770   -6.3910   30.0440 N   0  0  0  0  0  0  0  0  0  0  0  0
    3.4540   -5.7840   31.2870 C   0  0  0  0  0  0  0  0  0  0  0  0
    3.0800   -6.6660   32.4640 C   0  0  0  0  0  0  0  0  0  0  0  0
    3.7870   -7.8790   32.2880 O   0  0  0  0  0  0  0  0  0  0  0  0
    5.1380   -7.6430   32.4430 C   0  0  0  0  0  0  0  0  0  0  0  0
    3.3610   -4.3730   31.2220 N   0  0  0  0  0  0  0  0  0  0  0  0
    3.7880   -4.0290   30.0310 O   0  0  0  0  0  0  0  0  0  0  0  0
    6.0270   -5.1250   27.7690 C   0  0  0  0  0  0  0  0  0  0  0  0
    6.5960   -5.8990   28.7930 C   0  0  0  0  0  0  0  0  0  0  0  0
    6.9360   -5.2060   29.6520 O   0  0  0  0  0  0  0  0  0  0  0  0
    6.5010   -4.1380   28.9400 C   0  0  0  0  0  0  0  0  0  0  0  0
    6.3410   -3.5930   27.5370 C   0  0  0  0  0  0  0  0  0  0  0  0
    5.5790   -4.8860   23.2580 C   0  0  0  0  0  0  0  0  0  0  0  0
    6.3920   -5.3720   22.5180 C   0  0  0  0  0  0  0  0  0  0  0  0
  1  2  1  0
  2  3  2  0
  2  4  1  0
  4  5  1  0
  5  6  1  0
  6  7  1  0
  7  8  1  0
  8  9  2  0
  8 10  1  0
 10 11  1  0
 11 12  1  0
 12 13  1  1
 13 14  2  0
 14 15  1  0
 15 16  1  0
 16 17  1  0
 17 18  1  0
 15 19  2  0
 13 20  1  0
 19 20  1  0
 12 21  1  0
 21 22  1  0
 22 23  1  0
 21 24  1  0
 23 24  1  0
 10 25  1  0
 21 25  1  0
  7 26  1  0
  4 27  1  0
 26 27  1  0
M  END
