piperidine-amides-32979-covalent
     RDKit          3D

 30 33  0  0  0  0  0  0  0  0999 V2000
    7.0920   -3.3250   19.3150 C   0  0  0  0  0  0  0  0  0  0  0  0
    6.3850   -4.1740   20.3110 C   0  0  0  0  0  0  0  0  0  0  0  0
    5.3630   -4.7920   19.9650 O   0  0  0  0  0  0  0  0  0  0  0  0
    6.9220   -4.2940   21.6100 N   0  0  0  0  0  0  0  0  0  0  0  0
    6.6900   -5.4420   22.4370 C   0  0  0  0  0  0  0  0  0  0  0  0
    5.9490   -4.9380   23.6810 C   0  0  0  0  0  0  0  0  0  0  0  0
    6.7460   -3.8650   24.3870 C   0  0  0  0  0  0  0  0  0  0  0  0
    5.8460   -2.8890   25.0360 C   0  0  0  0  0  0  0  0  0  0  0  0
    5.2040   -2.1480   24.2930 O   0  0  0  0  0  0  0  0  0  0  0  0
    5.7140   -2.8650   26.4190 N   0  0  0  0  0  0  0  0  0  0  0  0
    4.8520   -3.7790   27.0330 C   0  0  0  0  0  0  0  0  0  0  0  0
    5.3260   -4.7930   27.7600 C   0  0  0  0  0  0  0  0  0  0  0  0
    4.4520   -5.6000   28.5230 C   0  0  0  0  0  0  0  0  0  0  0  0
    4.8900   -6.6530   29.2860 C   0  0  0  0  0  0  0  0  0  0  0  0
    6.3260   -6.9500   29.3070 C   0  0  0  0  0  0  0  0  0  0  0  0
    7.3230   -6.1190   28.5080 C   0  0  0  0  0  0  0  0  0  0  0  0
    8.6830   -6.2120   28.3740 O   0  0  0  0  0  0  0  0  0  0  0  0
    6.6410   -5.0350   27.7560 C   0  0  0  0  0  0  0  0  0  0  0  0
    6.0500   -1.6880   27.1540 C   0  0  0  0  0  0  0  0  0  0  0  0
    6.8980   -1.7260   28.3450 C   0  0  0  0  0  0  0  0  0  0  0  0
    7.1010   -0.3660   29.0100 C   0  0  0  0  0  0  0  0  0  0  0  0
    6.7090    0.9670   28.8120 C   0  0  0  0  0  0  0  0  0  0  0  0
    5.8400    0.8510   27.5280 C   0  0  0  0  0  0  0  0  0  0  0  0
    5.2120    2.1330   26.9680 C   0  0  0  0  0  0  0  0  0  0  0  0
    4.3430    2.1330   25.7240 C   0  0  0  0  0  0  0  0  0  0  0  0
    4.1340    0.8360   25.0860 C   0  0  0  0  0  0  0  0  0  0  0  0
    4.6660   -0.2720   25.5550 N   0  0  0  0  0  0  0  0  0  0  0  0
    5.5010   -0.3680   26.7170 C   0  0  0  0  0  0  0  0  0  0  0  0
    7.8720   -3.2490   23.6100 C   0  0  0  0  0  0  0  0  0  0  0  0
    7.6070   -3.1720   22.1420 C   0  0  0  0  0  0  0  0  0  0  0  0
  1  2  1  0
  2  3  2  0
  2  4  1  0
  4  5  1  0
  5  6  1  0
  6  7  1  0
  7  8  1  0
  8  9  2  0
  8 10  1  0
 10 11  1  0
 11 12  1  0
 12 13  2  0
 13 14  1  0
 14 15  2  0
 15 16  1  0
 16 17  1  0
 12 18  1  0
 16 18  2  0
 10 19  1  0
 19 20  2  0
 20 21  1  0
 21 22  2  0
 22 23  1  0
 23 24  1  0
 24 25  2  0
 25 26  1  0
 26 27  2  0
 19 28  1  0
 23 28  2  0
 27 28  1  0
  7 29  1  0
  4 30  1  0
 29 30  1  0
M  END
