piperidine-amides-774-covalent
     RDKit          3D

 25 27  0  0  0  0  0  0  0  0999 V2000
    7.0540   -3.3980   19.3180 C   0  0  0  0  0  0  0  0  0  0  0  0
    6.3490   -4.1320   20.3430 C   0  0  0  0  0  0  0  0  0  0  0  0
    5.3420   -4.8060   19.9740 O   0  0  0  0  0  0  0  0  0  0  0  0
    6.7560   -4.1730   21.6980 N   0  0  0  0  0  0  0  0  0  0  0  0
    6.7070   -5.5030   22.3390 C   0  0  0  0  0  0  0  0  0  0  0  0
    5.8590   -5.1790   23.6300 C   0  0  0  0  0  0  0  0  0  0  0  0
    6.1850   -3.7600   24.0440 C   0  0  0  0  0  0  0  0  0  0  0  0
    5.6750   -3.5060   25.5330 C   0  0  0  0  0  0  0  0  0  0  0  0
    4.9500   -4.4150   25.8930 O   0  0  0  0  0  0  0  0  0  0  0  0
    6.1390   -2.4110   25.9670 N   0  0  0  0  0  0  0  0  0  0  0  0
    6.5410   -1.1920   26.4150 C   0  0  1  0  0  0  0  0  0  0  0  0
    6.0140    0.0820   26.5640 C   0  0  0  0  0  0  0  0  0  0  0  0
    5.3760    0.0100   27.7560 C   0  0  0  0  0  0  0  0  0  0  0  0
    5.7490   -1.1680   28.1640 N   0  0  0  0  0  0  0  0  0  0  0  0
    5.3320   -1.4510   29.4590 C   0  0  0  0  0  0  0  0  0  0  0  0
    5.3960   -0.1670   30.3120 C   0  0  0  0  0  0  0  0  0  0  0  0
    6.5940   -0.2950   31.0290 C   0  0  0  0  0  0  0  0  0  0  0  0
    7.2560    0.5330   31.9980 C   0  0  0  0  0  0  0  0  0  0  0  0
    6.1960    1.6830   32.0230 C   0  0  0  0  0  0  0  0  0  0  0  0
    4.8530    1.8650   31.2410 C   0  0  0  0  0  0  0  0  0  0  0  0
    4.5140    0.8920   30.3960 C   0  0  0  0  0  0  0  0  0  0  0  0
    7.1560   -1.2330   27.8540 C   0  0  0  0  0  0  0  0  0  0  0  0
    7.3840   -1.2550   29.0700 O   0  0  0  0  0  0  0  0  0  0  0  0
    7.5710   -3.2810   23.6550 C   0  0  0  0  0  0  0  0  0  0  0  0
    7.5960   -3.1530   22.2820 C   0  0  0  0  0  0  0  0  0  0  0  0
  1  2  1  0
  2  3  2  0
  2  4  1  0
  4  5  1  0
  5  6  1  0
  6  7  1  0
  7  8  1  0
  8  9  2  0
  8 10  1  0
 11 10  1  1
 11 12  1  0
 12 13  1  0
 13 14  1  0
 14 15  1  0
 15 16  1  0
 16 17  2  0
 17 18  1  0
 18 19  2  0
 19 20  1  0
 16 21  1  0
 20 21  2  0
 11 22  1  0
 14 22  1  0
 22 23  2  0
  7 24  1  0
  4 25  1  0
 24 25  1  0
M  END
