piperidine-amides-33665-covalent
     RDKit          3D

 29 31  0  0  0  0  0  0  0  0999 V2000
    7.0250   -3.3850   19.4410 C   0  0  0  0  0  0  0  0  0  0  0  0
    6.4050   -4.2750   20.4420 C   0  0  0  0  0  0  0  0  0  0  0  0
    5.4440   -4.9730   20.0190 O   0  0  0  0  0  0  0  0  0  0  0  0
    6.8900   -4.3670   21.7890 N   0  0  0  0  0  0  0  0  0  0  0  0
    6.5320   -5.5050   22.5830 C   0  0  0  0  0  0  0  0  0  0  0  0
    5.9570   -5.1270   23.8740 C   0  0  0  0  0  0  0  0  0  0  0  0
    5.9670   -3.6660   24.0300 C   0  0  0  0  0  0  0  0  0  0  0  0
    5.2310   -3.0800   25.2430 C   0  0  0  0  0  0  0  0  0  0  0  0
    4.4240   -2.1760   24.9980 O   0  0  0  0  0  0  0  0  0  0  0  0
    5.3490   -3.4360   26.6240 N   0  0  0  0  0  0  0  0  0  0  0  0
    6.4830   -3.4880   27.3150 C   0  0  0  0  0  0  0  0  0  0  0  0
    6.4010   -4.6870   28.0840 C   0  0  0  0  0  0  0  0  0  0  0  0
    5.1340   -5.0350   28.2440 N   0  0  0  0  0  0  0  0  0  0  0  0
    4.1880   -4.0880   28.7760 C   0  0  0  0  0  0  0  0  0  0  0  0
    4.5850   -5.0760   29.6500 O   0  0  0  0  0  0  0  0  0  0  0  0
    4.1900   -3.4260   27.4910 C   0  0  2  0  0  0  0  0  0  0  0  0
    3.0100   -4.2940   27.0290 C   0  0  0  0  0  0  0  0  0  0  0  0
    2.3350   -3.2090   26.2450 C   0  0  0  0  0  0  0  0  0  0  0  0
    1.0780   -3.8580   25.6650 C   0  0  0  0  0  0  0  0  0  0  0  0
    0.5970   -5.2750   25.8270 C   0  0  0  0  0  0  0  0  0  0  0  0
   -0.5540   -5.7140   25.2490 O   0  0  0  0  0  0  0  0  0  0  0  0
   -0.7540   -7.0650   24.8620 C   0  0  0  0  0  0  0  0  0  0  0  0
    0.2930   -7.5700   24.1480 F   0  0  0  0  0  0  0  0  0  0  0  0
   -1.1290   -7.7420   25.9890 F   0  0  0  0  0  0  0  0  0  0  0  0
   -1.7910   -7.1350   23.9870 F   0  0  0  0  0  0  0  0  0  0  0  0
    1.4560   -6.1920   26.6710 C   0  0  0  0  0  0  0  0  0  0  0  0
    2.7060   -5.6480   27.2820 C   0  0  0  0  0  0  0  0  0  0  0  0
    7.3180   -3.0810   23.7450 C   0  0  0  0  0  0  0  0  0  0  0  0
    7.6120   -3.2520   22.3840 C   0  0  0  0  0  0  0  0  0  0  0  0
  1  2  1  0
  2  3  2  0
  2  4  1  0
  4  5  1  0
  5  6  1  0
  6  7  1  0
  7  8  1  0
  8  9  2  0
  8 10  1  0
 10 11  1  0
 11 12  1  0
 12 13  1  0
 13 14  1  0
 14 15  2  0
 10 16  1  0
 14 16  1  0
 16 17  1  6
 17 18  2  0
 18 19  1  0
 19 20  2  0
 20 21  1  0
 21 22  1  0
 22 23  1  0
 22 24  1  0
 22 25  1  0
 20 26  1  0
 17 27  1  0
 26 27  2  0
  7 28  1  0
  4 29  1  0
 28 29  1  0
M  END
