piperidine-amides-10021-covalent
     RDKit          3D

 26 28  0  0  0  0  0  0  0  0999 V2000
    7.0270   -3.3520   19.3680 C   0  0  0  0  0  0  0  0  0  0  0  0
    6.3960   -4.2070   20.3790 C   0  0  0  0  0  0  0  0  0  0  0  0
    5.4000   -4.8740   19.9910 O   0  0  0  0  0  0  0  0  0  0  0  0
    6.9170   -4.2890   21.6820 N   0  0  0  0  0  0  0  0  0  0  0  0
    7.7340   -3.2210   22.2480 C   0  0  0  0  0  0  0  0  0  0  0  0
    7.3430   -2.9640   23.6820 C   0  0  0  0  0  0  0  0  0  0  0  0
    6.0150   -3.5850   24.0040 C   0  0  0  0  0  0  0  0  0  0  0  0
    5.5340   -3.2200   25.3650 C   0  0  0  0  0  0  0  0  0  0  0  0
    4.2980   -3.1560   25.5200 O   0  0  0  0  0  0  0  0  0  0  0  0
    6.3460   -2.9430   26.4870 N   0  0  0  0  0  0  0  0  0  0  0  0
    6.7480   -1.5930   26.8380 C   0  0  2  0  0  0  0  0  0  0  0  0
    7.1550   -1.5030   28.2900 C   0  0  0  0  0  0  0  0  0  0  0  0
    6.4860   -0.5710   28.9710 C   0  0  0  0  0  0  0  0  0  0  0  0
    5.5970    0.0110   28.1340 N   0  0  0  0  0  0  0  0  0  0  0  0
    4.6160    0.8190   28.5900 C   0  0  0  0  0  0  0  0  0  0  0  0
    3.5370    0.9860   27.8620 O   0  0  0  0  0  0  0  0  0  0  0  0
    4.7350    1.4680   29.8130 C   0  0  0  0  0  0  0  0  0  0  0  0
    4.7150    2.8520   29.9400 C   0  0  0  0  0  0  0  0  0  0  0  0
    4.8340    3.5390   31.1430 C   0  0  0  0  0  0  0  0  0  0  0  0
    5.0070    2.9150   32.5220 C   0  0  0  0  0  0  0  0  0  0  0  0
    5.1260    3.5850   33.6910 F   0  0  0  0  0  0  0  0  0  0  0  0
    5.0190    1.4050   32.2910 C   0  0  0  0  0  0  0  0  0  0  0  0
    4.8840    0.7340   30.9590 C   0  0  0  0  0  0  0  0  0  0  0  0
    5.5920   -0.6080   26.7670 C   0  0  0  0  0  0  0  0  0  0  0  0
    6.0340   -5.0560   23.8050 C   0  0  0  0  0  0  0  0  0  0  0  0
    6.6350   -5.4570   22.4750 C   0  0  0  0  0  0  0  0  0  0  0  0
  1  2  1  0
  2  3  2  0
  2  4  1  0
  4  5  1  0
  5  6  1  0
  6  7  1  0
  7  8  1  0
  8  9  2  0
  8 10  1  0
 11 10  1  1
 11 12  1  0
 12 13  1  0
 13 14  1  0
 14 15  1  0
 15 16  2  0
 15 17  1  0
 17 18  2  0
 18 19  1  0
 19 20  2  0
 20 21  1  0
 20 22  1  0
 17 23  1  0
 22 23  2  0
 11 24  1  0
 14 24  1  0
  7 25  1  0
  4 26  1  0
 25 26  1  0
M  END
