piperidine-amides-31800-covalent
     RDKit          3D

 26 27  0  0  0  0  0  0  0  0999 V2000
    6.9660   -3.4460   19.4220 C   0  0  0  0  0  0  0  0  0  0  0  0
    6.3460   -4.2700   20.4460 C   0  0  0  0  0  0  0  0  0  0  0  0
    5.4360   -5.0530   20.0310 O   0  0  0  0  0  0  0  0  0  0  0  0
    6.7190   -4.2640   21.8280 N   0  0  0  0  0  0  0  0  0  0  0  0
    6.5810   -5.5630   22.5770 C   0  0  0  0  0  0  0  0  0  0  0  0
    6.0050   -5.1560   24.0190 C   0  0  0  0  0  0  0  0  0  0  0  0
    6.1490   -3.6640   24.0900 C   0  0  0  0  0  0  0  0  0  0  0  0
    5.4820   -2.7500   25.2440 C   0  0  0  0  0  0  0  0  0  0  0  0
    5.2800   -1.6800   24.7160 O   0  0  0  0  0  0  0  0  0  0  0  0
    5.2540   -3.2250   26.4270 N   0  0  0  0  0  0  0  0  0  0  0  0
    4.5680   -3.4830   27.5700 C   0  0  0  0  0  0  0  0  0  0  0  0
    4.3410   -4.5120   28.4230 C   0  0  0  0  0  0  0  0  0  0  0  0
    5.5380   -4.7290   29.2030 N   0  0  0  0  0  0  0  0  0  0  0  0
    5.4610   -6.3280   29.8150 S   0  0  0  0  0  0  0  0  0  0  0  0
    5.8350   -6.3990   31.2370 O   0  0  0  0  0  0  0  0  0  0  0  0
    6.3790   -7.1050   28.9400 O   0  0  0  0  0  0  0  0  0  0  0  0
    3.8170   -6.8540   29.5960 C   0  0  0  0  0  0  0  0  0  0  0  0
    3.3600   -7.8540   30.5680 C   0  0  0  0  0  0  0  0  0  0  0  0
    2.1530   -7.6020   31.1900 O   0  0  0  0  0  0  0  0  0  0  0  0
    1.2600   -8.6770   31.1170 C   0  0  0  0  0  0  0  0  0  0  0  0
    0.0930   -8.7750   31.8840 C   0  0  0  0  0  0  0  0  0  0  0  0
    1.3750   -9.6460   32.2880 C   0  0  0  0  0  0  0  0  0  0  0  0
    6.6540   -4.4950   28.3380 C   0  0  0  0  0  0  0  0  0  0  0  0
    6.3560   -3.3420   27.2890 C   0  0  0  0  0  0  0  0  0  0  0  0
    7.5670   -3.2450   23.7010 C   0  0  0  0  0  0  0  0  0  0  0  0
    7.6670   -3.2740   22.3400 C   0  0  0  0  0  0  0  0  0  0  0  0
  1  2  1  0
  2  3  2  0
  2  4  1  0
  4  5  1  0
  5  6  1  0
  6  7  1  0
  7  8  1  0
  8  9  2  0
  8 10  1  0
 10 11  1  0
 11 12  1  0
 12 13  1  0
 13 14  1  0
 14 15  2  0
 14 16  2  0
 14 17  1  0
 17 18  1  0
 18 19  1  0
 19 20  1  0
 20 21  1  0
 20 22  1  0
 13 23  1  0
 10 24  1  0
 23 24  1  0
  7 25  1  0
  4 26  1  0
 25 26  1  0
M  END
