piperidine-amides-11854-covalent
     RDKit          3D

 27 29  0  0  0  0  0  0  0  0999 V2000
    7.0730   -3.3310   19.3000 C   0  0  0  0  0  0  0  0  0  0  0  0
    6.3800   -4.1670   20.2740 C   0  0  0  0  0  0  0  0  0  0  0  0
    5.3570   -4.7720   19.9600 O   0  0  0  0  0  0  0  0  0  0  0  0
    6.9250   -4.3220   21.5920 N   0  0  0  0  0  0  0  0  0  0  0  0
    7.6840   -3.2520   22.1900 C   0  0  0  0  0  0  0  0  0  0  0  0
    6.8960   -2.6350   23.3000 C   0  0  0  0  0  0  0  0  0  0  0  0
    6.5900   -3.7450   24.2760 C   0  0  0  0  0  0  0  0  0  0  0  0
    5.7730   -3.2050   25.3950 C   0  0  0  0  0  0  0  0  0  0  0  0
    4.5790   -2.8820   25.2580 O   0  0  0  0  0  0  0  0  0  0  0  0
    6.3840   -3.0670   26.6590 N   0  0  0  0  0  0  0  0  0  0  0  0
    6.4160   -1.7740   27.3110 C   0  0  0  0  0  0  0  0  0  0  0  0
    5.7530   -0.6120   26.6380 C   0  0  0  0  0  0  0  0  0  0  0  0
    5.7690    0.6310   27.2570 C   0  0  0  0  0  0  0  0  0  0  0  0
    6.4090    0.7970   28.5090 C   0  0  0  0  0  0  0  0  0  0  0  0
    6.4180    2.0690   29.1220 N   0  0  0  0  0  0  0  0  0  0  0  0
    7.2500    2.4130   30.1930 C   0  0  0  0  0  0  0  0  0  0  0  0
    5.0660    2.5410   29.0050 C   0  0  0  0  0  0  0  0  0  0  0  0
    4.5500    2.7930   30.2550 C   0  0  0  0  0  0  0  0  0  0  0  0
    4.6780    3.7710   31.1660 C   0  0  0  0  0  0  0  0  0  0  0  0
    3.9570    3.6050   32.2940 N   0  0  0  0  0  0  0  0  0  0  0  0
    3.2730    2.4380   32.1870 N   0  0  0  0  0  0  0  0  0  0  0  0
    2.4310    1.8940   33.0920 C   0  0  0  0  0  0  0  0  0  0  0  0
    3.6070    1.9190   30.9660 C   0  0  0  0  0  0  0  0  0  0  0  0
    7.0270   -0.3060   29.1230 C   0  0  0  0  0  0  0  0  0  0  0  0
    7.0280   -1.5550   28.5350 C   0  0  0  0  0  0  0  0  0  0  0  0
    5.8130   -4.8710   23.6240 C   0  0  0  0  0  0  0  0  0  0  0  0
    6.5680   -5.4440   22.4170 C   0  0  0  0  0  0  0  0  0  0  0  0
  1  2  1  0
  2  3  2  0
  2  4  1  0
  4  5  1  0
  5  6  1  0
  6  7  1  0
  7  8  1  0
  8  9  2  0
  8 10  1  0
 10 11  1  0
 11 12  2  0
 12 13  1  0
 13 14  2  0
 14 15  1  0
 15 16  1  0
 15 17  1  0
 17 18  1  0
 18 19  1  0
 19 20  2  0
 20 21  1  0
 21 22  1  0
 18 23  2  0
 21 23  1  0
 14 24  1  0
 11 25  1  0
 24 25  2  0
  7 26  1  0
  4 27  1  0
 26 27  1  0
M  END
