piperidine-amides-4810-covalent
     RDKit          3D

 24 25  0  0  0  0  0  0  0  0999 V2000
    7.0950   -3.2890   19.2410 C   0  0  0  0  0  0  0  0  0  0  0  0
    6.3720   -4.0850   20.2570 C   0  0  0  0  0  0  0  0  0  0  0  0
    5.3000   -4.6090   19.9020 O   0  0  0  0  0  0  0  0  0  0  0  0
    6.9080   -4.2770   21.5340 N   0  0  0  0  0  0  0  0  0  0  0  0
    7.6260   -3.2140   22.1700 C   0  0  0  0  0  0  0  0  0  0  0  0
    7.1530   -2.8620   23.5070 C   0  0  0  0  0  0  0  0  0  0  0  0
    6.4550   -3.9430   24.2300 C   0  0  0  0  0  0  0  0  0  0  0  0
    5.7070   -3.3610   25.3730 C   0  0  0  0  0  0  0  0  0  0  0  0
    4.5060   -3.0830   25.2120 O   0  0  0  0  0  0  0  0  0  0  0  0
    6.3320   -3.1200   26.6050 N   0  0  0  0  0  0  0  0  0  0  0  0
    6.3700   -1.7870   27.2530 C   0  0  0  0  0  0  0  0  0  0  0  0
    7.0520   -1.5330   28.5450 C   0  0  0  0  0  0  0  0  0  0  0  0
    7.0940   -0.2330   29.2010 C   0  0  0  0  0  0  0  0  0  0  0  0
    6.4690    0.8480   28.6080 C   0  0  0  0  0  0  0  0  0  0  0  0
    6.4510    1.9960   29.0930 O   0  0  0  0  0  0  0  0  0  0  0  0
    5.3640    2.2360   29.7680 C   0  0  0  0  0  0  0  0  0  0  0  0
    5.4440    2.4310   31.1140 C   0  0  0  0  0  0  0  0  0  0  0  0
    5.0070    1.2910   31.8260 N   0  0  0  0  0  0  0  0  0  0  0  0
    5.9310    0.2070   31.9040 C   0  0  0  0  0  0  0  0  0  0  0  0
    3.5820    1.0120   31.4570 C   0  0  0  0  0  0  0  0  0  0  0  0
    5.8050    0.7300   27.4060 C   0  0  0  0  0  0  0  0  0  0  0  0
    5.7080   -0.5470   26.6620 C   0  0  0  0  0  0  0  0  0  0  0  0
    5.5660   -4.7940   23.3970 C   0  0  0  0  0  0  0  0  0  0  0  0
    6.4670   -5.3800   22.3520 C   0  0  0  0  0  0  0  0  0  0  0  0
  1  2  1  0
  2  3  2  0
  2  4  1  0
  4  5  1  0
  5  6  1  0
  6  7  1  0
  7  8  1  0
  8  9  2  0
  8 10  1  0
 10 11  1  0
 11 12  2  0
 12 13  1  0
 13 14  2  0
 14 15  1  0
 15 16  1  0
 16 17  1  0
 17 18  1  0
 18 19  1  0
 18 20  1  0
 14 21  1  0
 11 22  1  0
 21 22  2  0
  7 23  1  0
  4 24  1  0
 23 24  1  0
M  END
