piperidine-amides-17904-covalent
     RDKit          3D

 21 22  0  0  0  0  0  0  0  0999 V2000
    7.0690   -3.4210   19.3540 C   0  0  0  0  0  0  0  0  0  0  0  0
    6.4470   -4.2270   20.3790 C   0  0  0  0  0  0  0  0  0  0  0  0
    5.4300   -4.9020   20.0150 O   0  0  0  0  0  0  0  0  0  0  0  0
    6.9470   -4.3400   21.7060 N   0  0  0  0  0  0  0  0  0  0  0  0
    6.6100   -5.5370   22.4950 C   0  0  0  0  0  0  0  0  0  0  0  0
    5.7930   -4.8760   23.6790 C   0  0  0  0  0  0  0  0  0  0  0  0
    6.5610   -3.6670   24.2240 C   0  0  0  0  0  0  0  0  0  0  0  0
    5.7250   -2.9930   25.4010 C   0  0  0  0  0  0  0  0  0  0  0  0
    4.8100   -2.3510   24.9140 O   0  0  0  0  0  0  0  0  0  0  0  0
    6.1900   -3.2870   26.5510 N   0  0  0  0  0  0  0  0  0  0  0  0
    6.5090   -4.1100   27.5950 C   0  0  0  0  0  0  0  0  0  0  0  0
    6.3260   -2.0110   27.1960 C   0  0  0  0  0  0  0  0  0  0  0  0
    6.9560   -1.8440   28.5100 C   0  0  0  0  0  0  0  0  0  0  0  0
    7.1920   -0.6380   29.3600 C   0  0  0  0  0  0  0  0  0  0  0  0
    6.5890    0.4050   28.4830 C   0  0  0  0  0  0  0  0  0  0  0  0
    6.5610    1.7550   28.8540 C   0  0  0  0  0  0  0  0  0  0  0  0
    5.9180    0.6020   27.1990 C   0  0  0  0  0  0  0  0  0  0  0  0
    5.4530    1.7630   26.6410 F   0  0  0  0  0  0  0  0  0  0  0  0
    5.7740   -0.7320   26.4840 C   0  0  0  0  0  0  0  0  0  0  0  0
    6.9670   -2.6980   23.1500 C   0  0  0  0  0  0  0  0  0  0  0  0
    7.8020   -3.3610   22.3090 C   0  0  0  0  0  0  0  0  0  0  0  0
  1  2  1  0
  2  3  2  0
  2  4  1  0
  4  5  1  0
  5  6  1  0
  6  7  1  0
  7  8  1  0
  8  9  2  0
  8 10  1  0
 10 11  1  0
 10 12  1  0
 12 13  2  0
 13 14  1  0
 14 15  2  0
 15 16  1  0
 15 17  1  0
 17 18  1  0
 12 19  1  0
 17 19  2  0
  7 20  1  0
  4 21  1  0
 20 21  1  0
M  END
