piperidine-amides-850-covalent
     RDKit          3D

 25 27  0  0  0  0  0  0  0  0999 V2000
    7.0970   -3.3690   19.2920 C   0  0  0  0  0  0  0  0  0  0  0  0
    6.3620   -4.0710   20.3140 C   0  0  0  0  0  0  0  0  0  0  0  0
    5.3250   -4.7070   19.9510 O   0  0  0  0  0  0  0  0  0  0  0  0
    6.7830   -4.1360   21.6580 N   0  0  0  0  0  0  0  0  0  0  0  0
    6.6920   -5.4470   22.3280 C   0  0  0  0  0  0  0  0  0  0  0  0
    5.6990   -5.0640   23.4820 C   0  0  0  0  0  0  0  0  0  0  0  0
    6.2130   -3.7610   24.0650 C   0  0  0  0  0  0  0  0  0  0  0  0
    5.9300   -3.7780   25.6310 C   0  0  0  0  0  0  0  0  0  0  0  0
    5.7440   -4.9140   26.0060 O   0  0  0  0  0  0  0  0  0  0  0  0
    5.9380   -2.6080   26.1090 N   0  0  0  0  0  0  0  0  0  0  0  0
    5.8420   -1.3850   26.6900 C   0  0  2  0  0  0  0  0  0  0  0  0
    5.9620   -0.0520   26.4130 C   0  0  0  0  0  0  0  0  0  0  0  0
    6.0210    0.6680   27.6080 C   0  0  0  0  0  0  0  0  0  0  0  0
    6.4040   -0.1130   28.5930 N   0  0  0  0  0  0  0  0  0  0  0  0
    5.3600   -0.3170   29.4740 C   0  0  1  0  0  0  0  0  0  0  0  0
    5.4350   -1.6460   30.2350 C   0  0  0  0  0  0  0  0  0  0  0  0
    5.7530   -0.1620   30.9620 C   0  0  0  0  0  0  0  0  0  0  0  0
    4.6400   -0.1730   31.8930 C   0  0  0  0  0  0  0  0  0  0  0  0
    5.4420    0.0060   33.2070 C   0  0  0  0  0  0  0  0  0  0  0  0
    6.9650    0.1430   33.3980 C   0  0  0  0  0  0  0  0  0  0  0  0
    7.7380    0.1150   32.3230 C   0  0  0  0  0  0  0  0  0  0  0  0
    7.1430   -0.0390   31.1190 C   0  0  0  0  0  0  0  0  0  0  0  0
    6.8710   -1.2390   27.8590 C   0  0  0  0  0  0  0  0  0  0  0  0
    7.5700   -3.2930   23.6340 C   0  0  0  0  0  0  0  0  0  0  0  0
    7.6370   -3.1390   22.2480 C   0  0  0  0  0  0  0  0  0  0  0  0
  1  2  1  0
  2  3  2  0
  2  4  1  0
  4  5  1  0
  5  6  1  0
  6  7  1  0
  7  8  1  0
  8  9  2  0
  8 10  1  0
 11 10  1  6
 11 12  1  0
 12 13  1  0
 13 14  1  0
 14 15  1  0
 15 16  1  1
 15 17  1  0
 17 18  2  0
 18 19  1  0
 19 20  2  0
 20 21  1  0
 17 22  1  0
 21 22  2  0
 11 23  1  0
 14 23  1  0
  7 24  1  0
  4 25  1  0
 24 25  1  0
M  END
