piperidine-amides-8973-covalent
     RDKit          3D

 21 22  0  0  0  0  0  0  0  0999 V2000
    7.4050   -3.0870   19.0650 C   0  0  0  0  0  0  0  0  0  0  0  0
    6.4670   -3.8350   19.9060 C   0  0  0  0  0  0  0  0  0  0  0  0
    5.2810   -3.9590   19.5640 O   0  0  0  0  0  0  0  0  0  0  0  0
    6.8660   -4.2710   21.1110 N   0  0  0  0  0  0  0  0  0  0  0  0
    6.2330   -5.3610   21.8100 C   0  0  0  0  0  0  0  0  0  0  0  0
    5.6680   -4.6800   22.9930 C   0  0  0  0  0  0  0  0  0  0  0  0
    6.6750   -3.9680   23.7980 C   0  0  0  0  0  0  0  0  0  0  0  0
    6.1040   -3.3460   25.0430 C   0  0  0  0  0  0  0  0  0  0  0  0
    4.8360   -3.2320   25.1830 O   0  0  0  0  0  0  0  0  0  0  0  0
    6.8590   -2.8220   26.1330 N   0  0  0  0  0  0  0  0  0  0  0  0
    6.5910   -3.2010   27.5940 C   0  0  0  0  0  0  0  0  0  0  0  0
    5.3490   -3.8890   27.7290 C   0  0  0  0  0  0  0  0  0  0  0  0
    5.1240   -4.9960   26.7760 C   0  0  0  0  0  0  0  0  0  0  0  0
    6.5300   -5.2100   26.3750 C   0  0  0  0  0  0  0  0  0  0  0  0
    6.7000   -6.0900   27.6270 C   0  0  0  0  0  0  0  0  0  0  0  0
    7.9990   -6.6300   27.8910 N   0  0  0  0  0  0  0  0  0  0  0  0
    8.5560   -6.1550   26.8470 N   0  0  0  0  0  0  0  0  0  0  0  0
    9.8420   -6.5210   26.7420 C   0  0  0  0  0  0  0  0  0  0  0  0
    7.8580   -5.4120   25.9960 N   0  0  0  0  0  0  0  0  0  0  0  0
    7.2760   -2.8970   22.9310 C   0  0  0  0  0  0  0  0  0  0  0  0
    7.8120   -3.3860   21.7440 C   0  0  0  0  0  0  0  0  0  0  0  0
  1  2  1  0
  2  3  2  0
  2  4  1  0
  4  5  1  0
  5  6  1  0
  6  7  1  0
  7  8  1  0
  8  9  2  0
  8 10  1  0
 10 11  1  0
 11 12  1  0
 12 13  1  0
 13 14  1  0
 14 15  1  0
 15 16  2  0
 16 17  1  0
 17 18  1  0
 14 19  2  0
 17 19  1  0
  7 20  1  0
  4 21  1  0
 20 21  1  0
M  END
