piperidine-amides-3341-covalent
     RDKit          3D

 22 23  0  0  0  0  0  0  0  0999 V2000
    7.0880   -3.3510   19.3400 C   0  0  0  0  0  0  0  0  0  0  0  0
    6.4210   -4.2080   20.3080 C   0  0  0  0  0  0  0  0  0  0  0  0
    5.4040   -4.8250   19.9840 O   0  0  0  0  0  0  0  0  0  0  0  0
    6.9920   -4.3790   21.6180 N   0  0  0  0  0  0  0  0  0  0  0  0
    7.6520   -3.2560   22.2130 C   0  0  0  0  0  0  0  0  0  0  0  0
    6.8210   -2.7830   23.3650 C   0  0  0  0  0  0  0  0  0  0  0  0
    6.4380   -3.9790   24.2380 C   0  0  0  0  0  0  0  0  0  0  0  0
    5.7360   -3.4450   25.4390 C   0  0  0  0  0  0  0  0  0  0  0  0
    4.5000   -3.5960   25.6110 O   0  0  0  0  0  0  0  0  0  0  0  0
    6.4570   -2.7070   26.4080 N   0  0  0  0  0  0  0  0  0  0  0  0
    5.9610   -1.3740   26.6620 C   0  0  0  0  0  0  0  0  0  0  0  0
    6.3240   -0.0700   27.2630 C   0  0  0  0  0  0  0  0  0  0  0  0
    5.2270    0.2330   27.4450 N   0  0  0  0  0  0  0  0  0  0  0  0
    5.8010   -0.9510   28.1230 N   0  0  0  0  0  0  0  0  0  0  0  0
    5.4880   -1.0720   29.5480 C   0  0  0  0  0  0  0  0  0  0  0  0
    6.1750   -0.0270   30.1890 C   0  0  0  0  0  0  0  0  0  0  0  0
    5.7930    0.0640   31.5130 F   0  0  0  0  0  0  0  0  0  0  0  0
    7.5240   -0.1090   30.1070 F   0  0  0  0  0  0  0  0  0  0  0  0
    5.7990    1.2010   29.6290 F   0  0  0  0  0  0  0  0  0  0  0  0
    6.6490   -2.0430   27.5730 C   0  0  0  0  0  0  0  0  0  0  0  0
    5.6740   -4.9270   23.3950 C   0  0  0  0  0  0  0  0  0  0  0  0
    6.5090   -5.4150   22.4220 C   0  0  0  0  0  0  0  0  0  0  0  0
  1  2  1  0
  2  3  2  0
  2  4  1  0
  4  5  1  0
  5  6  1  0
  6  7  1  0
  7  8  1  0
  8  9  2  0
  8 10  1  0
 10 11  1  0
 11 12  1  0
 12 13  2  0
 13 14  1  0
 14 15  1  0
 15 16  1  0
 16 17  1  0
 16 18  1  0
 16 19  1  0
 11 20  2  0
 14 20  1  0
  7 21  1  0
  4 22  1  0
 21 22  1  0
M  END
