piperidine-amides-30754-covalent
     RDKit          3D

 23 25  0  0  0  0  0  0  0  0999 V2000
    7.0920   -3.3330   19.2720 C   0  0  0  0  0  0  0  0  0  0  0  0
    6.3730   -4.1090   20.2830 C   0  0  0  0  0  0  0  0  0  0  0  0
    5.3560   -4.7460   19.9530 O   0  0  0  0  0  0  0  0  0  0  0  0
    6.8450   -4.1810   21.6000 N   0  0  0  0  0  0  0  0  0  0  0  0
    7.6900   -3.1460   22.1600 C   0  0  0  0  0  0  0  0  0  0  0  0
    6.9540   -2.6180   23.3460 C   0  0  0  0  0  0  0  0  0  0  0  0
    6.5860   -3.7310   24.2690 C   0  0  0  0  0  0  0  0  0  0  0  0
    5.7600   -3.2390   25.3940 C   0  0  0  0  0  0  0  0  0  0  0  0
    4.5190   -3.0510   25.2170 O   0  0  0  0  0  0  0  0  0  0  0  0
    6.2630   -2.9660   26.6840 N   0  0  0  0  0  0  0  0  0  0  0  0
    6.1260   -4.0370   27.7010 C   0  0  0  0  0  0  0  0  0  0  0  0
    4.8030   -3.9400   28.3680 C   0  0  0  0  0  0  0  0  0  0  0  0
    3.8380   -3.1020   27.9370 C   0  0  0  0  0  0  0  0  0  0  0  0
    3.6150   -4.5850   27.5560 C   0  0  0  0  0  0  0  0  0  0  0  0
    6.3350   -1.6350   27.2700 C   0  0  0  0  0  0  0  0  0  0  0  0
    5.7800   -0.5760   26.3100 C   0  0  0  0  0  0  0  0  0  0  0  0
    5.9470    0.6190   27.1330 N   0  0  0  0  0  0  0  0  0  0  0  0
    6.4480    0.6990   28.3650 C   0  0  0  0  0  0  0  0  0  0  0  0
    6.9250   -0.2820   29.1520 C   0  0  0  0  0  0  0  0  0  0  0  0
    7.5890    0.1330   30.9060 Br  0  0  0  0  0  0  0  0  0  0  0  0
    6.8740   -1.6250   28.5470 C   0  0  0  0  0  0  0  0  0  0  0  0
    5.8490   -4.8850   23.6350 C   0  0  0  0  0  0  0  0  0  0  0  0
    6.6000   -5.3530   22.4130 C   0  0  0  0  0  0  0  0  0  0  0  0
  1  2  1  0
  2  3  2  0
  2  4  1  0
  4  5  1  0
  5  6  1  0
  6  7  1  0
  7  8  1  0
  8  9  2  0
  8 10  1  0
 10 11  1  0
 11 12  1  0
 12 13  1  0
 12 14  1  0
 13 14  1  0
 10 15  1  0
 15 16  2  0
 16 17  1  0
 17 18  2  0
 18 19  1  0
 19 20  1  0
 15 21  1  0
 19 21  2  0
  7 22  1  0
  4 23  1  0
 22 23  1  0
M  END
