piperidine-amides-27081-covalent
     RDKit          3D

 26 28  0  0  0  0  0  0  0  0999 V2000
    7.0800   -3.3220   19.2830 C   0  0  0  0  0  0  0  0  0  0  0  0
    6.3910   -4.1160   20.3060 C   0  0  0  0  0  0  0  0  0  0  0  0
    5.3470   -4.7190   19.9450 O   0  0  0  0  0  0  0  0  0  0  0  0
    6.9160   -4.2200   21.5960 N   0  0  0  0  0  0  0  0  0  0  0  0
    6.5350   -5.3010   22.4640 C   0  0  0  0  0  0  0  0  0  0  0  0
    5.7710   -4.7100   23.6240 C   0  0  0  0  0  0  0  0  0  0  0  0
    6.5170   -3.5810   24.3220 C   0  0  0  0  0  0  0  0  0  0  0  0
    5.6700   -2.9480   25.3700 C   0  0  0  0  0  0  0  0  0  0  0  0
    4.5050   -2.6250   25.0560 O   0  0  0  0  0  0  0  0  0  0  0  0
    6.0990   -2.7210   26.7010 N   0  0  0  0  0  0  0  0  0  0  0  0
    6.0940   -3.8160   27.6210 C   0  0  0  0  0  0  0  0  0  0  0  0
    7.2780   -4.6270   27.2540 C   0  0  0  0  0  0  0  0  0  0  0  0
    8.2920   -5.0180   28.0450 C   0  0  0  0  0  0  0  0  0  0  0  0
    9.3080   -5.7510   27.5350 C   0  0  0  0  0  0  0  0  0  0  0  0
    9.3620   -6.1170   26.2560 N   0  0  0  0  0  0  0  0  0  0  0  0
    8.3960   -5.7640   25.4380 C   0  0  0  0  0  0  0  0  0  0  0  0
    7.3710   -5.0330   25.9370 C   0  0  0  0  0  0  0  0  0  0  0  0
    6.2950   -1.4370   27.2920 C   0  0  0  0  0  0  0  0  0  0  0  0
    7.2530   -1.5190   28.5360 C   0  0  0  0  0  0  0  0  0  0  0  0
    7.2250   -0.0870   28.9240 N   0  0  0  0  0  0  0  0  0  0  0  0
    6.5700    0.9360   28.3590 C   0  0  0  0  0  0  0  0  0  0  0  0
    5.7080    0.9060   27.1950 C   0  0  0  0  0  0  0  0  0  0  0  0
    4.9810    2.0840   26.5690 C   0  0  0  0  0  0  0  0  0  0  0  0
    5.6070   -0.3990   26.6740 C   0  0  0  0  0  0  0  0  0  0  0  0
    6.8870   -2.5370   23.2860 C   0  0  0  0  0  0  0  0  0  0  0  0
    7.7290   -3.1820   22.2010 C   0  0  0  0  0  0  0  0  0  0  0  0
  1  2  1  0
  2  3  2  0
  2  4  1  0
  4  5  1  0
  5  6  1  0
  6  7  1  0
  7  8  1  0
  8  9  2  0
  8 10  1  0
 10 11  1  0
 11 12  1  0
 12 13  2  0
 13 14  1  0
 14 15  2  0
 15 16  1  0
 12 17  1  0
 16 17  2  0
 10 18  1  0
 18 19  2  0
 19 20  1  0
 20 21  2  0
 21 22  1  0
 22 23  1  0
 18 24  1  0
 22 24  2  0
  7 25  1  0
  4 26  1  0
 25 26  1  0
M  END
