piperidine-amides-8643-covalent
     RDKit          3D

 23 25  0  0  0  0  0  0  0  0999 V2000
    7.0190   -3.3370   19.3790 C   0  0  0  0  0  0  0  0  0  0  0  0
    6.3560   -4.1810   20.3800 C   0  0  0  0  0  0  0  0  0  0  0  0
    5.4160   -4.8990   19.9910 O   0  0  0  0  0  0  0  0  0  0  0  0
    6.7880   -4.1990   21.7340 N   0  0  0  0  0  0  0  0  0  0  0  0
    7.6880   -3.1740   22.1990 C   0  0  0  0  0  0  0  0  0  0  0  0
    7.5170   -3.0310   23.6730 C   0  0  0  0  0  0  0  0  0  0  0  0
    6.1270   -3.5420   23.9360 C   0  0  0  0  0  0  0  0  0  0  0  0
    5.6860   -3.2550   25.3440 C   0  0  0  0  0  0  0  0  0  0  0  0
    4.4910   -3.4250   25.5770 O   0  0  0  0  0  0  0  0  0  0  0  0
    6.6270   -2.8160   26.2740 N   0  0  0  0  0  0  0  0  0  0  0  0
    6.4770   -1.5710   26.9600 C   0  0  0  0  0  0  0  0  0  0  0  0
    6.0270   -0.4020   26.3570 C   0  0  0  0  0  0  0  0  0  0  0  0
    5.8840    0.7880   27.0320 C   0  0  0  0  0  0  0  0  0  0  0  0
    6.1630    0.9780   28.3780 C   0  0  0  0  0  0  0  0  0  0  0  0
    6.6520   -0.2450   29.0910 C   0  0  0  0  0  0  0  0  0  0  0  0
    6.9550   -0.0570   30.5950 C   0  0  0  0  0  0  0  0  0  0  0  0
    8.2840   -0.0200   31.1460 C   0  0  0  0  0  0  0  0  0  0  0  0
    8.1820    0.1840   32.5320 N   0  0  0  0  0  0  0  0  0  0  0  0
    6.7370    0.2570   32.7430 C   0  0  0  0  0  0  0  0  0  0  0  0
    6.0530    0.1090   31.5600 N   0  0  0  0  0  0  0  0  0  0  0  0
    6.8110   -1.4910   28.4030 C   0  0  0  0  0  0  0  0  0  0  0  0
    6.0900   -5.0450   23.7280 C   0  0  0  0  0  0  0  0  0  0  0  0
    6.6740   -5.4060   22.5210 C   0  0  0  0  0  0  0  0  0  0  0  0
  1  2  1  0
  2  3  2  0
  2  4  1  0
  4  5  1  0
  5  6  1  0
  6  7  1  0
  7  8  1  0
  8  9  2  0
  8 10  1  0
 10 11  1  0
 11 12  2  0
 12 13  1  0
 13 14  2  0
 14 15  1  0
 15 16  1  0
 16 17  2  0
 17 18  1  0
 18 19  1  0
 16 20  1  0
 19 20  2  0
 11 21  1  0
 15 21  2  0
  7 22  1  0
  4 23  1  0
 22 23  1  0
M  END
