piperidine-amides-25252-covalent
     RDKit          3D

 24 24  0  0  0  0  0  0  0  0999 V2000
    7.1420   -3.2960   19.2340 C   0  0  0  0  0  0  0  0  0  0  0  0
    6.3580   -4.0430   20.2470 C   0  0  0  0  0  0  0  0  0  0  0  0
    5.2870   -4.5210   19.8790 O   0  0  0  0  0  0  0  0  0  0  0  0
    6.8720   -4.2220   21.5320 N   0  0  0  0  0  0  0  0  0  0  0  0
    6.5270   -5.3710   22.3140 C   0  0  0  0  0  0  0  0  0  0  0  0
    5.7750   -4.9040   23.5270 C   0  0  0  0  0  0  0  0  0  0  0  0
    6.5320   -3.7710   24.2380 C   0  0  0  0  0  0  0  0  0  0  0  0
    5.7080   -3.3400   25.3890 C   0  0  0  0  0  0  0  0  0  0  0  0
    4.5150   -3.0680   25.1990 O   0  0  0  0  0  0  0  0  0  0  0  0
    6.2420   -3.2090   26.6920 N   0  0  0  0  0  0  0  0  0  0  0  0
    6.5800   -1.8550   27.0660 C   0  0  0  0  0  0  0  0  0  0  0  0
    5.2820   -1.0850   27.1020 C   0  0  0  0  0  0  0  0  0  0  0  0
    6.1900   -4.3510   27.4920 C   0  0  0  0  0  0  0  0  0  0  0  0
    5.0320   -4.5210   28.1340 C   0  0  0  0  0  0  0  0  0  0  0  0
    4.6140   -5.8730   28.4210 N   0  0  0  0  0  0  0  0  0  0  0  0
    3.2040   -6.1730   28.4160 C   0  0  0  0  0  0  0  0  0  0  0  0
    2.4520   -6.0300   29.5400 O   0  0  0  0  0  0  0  0  0  0  0  0
    2.5330   -6.6090   27.2980 O   0  0  0  0  0  0  0  0  0  0  0  0
    3.0050   -6.4070   25.9880 C   0  0  0  0  0  0  0  0  0  0  0  0
    3.3830   -7.6060   25.1700 C   0  0  0  0  0  0  0  0  0  0  0  0
    4.4690   -6.7580   25.8970 C   0  0  0  0  0  0  0  0  0  0  0  0
    2.7100   -5.1580   25.2100 C   0  0  0  0  0  0  0  0  0  0  0  0
    6.8800   -2.6290   23.3290 C   0  0  0  0  0  0  0  0  0  0  0  0
    7.6590   -3.1810   22.1560 C   0  0  0  0  0  0  0  0  0  0  0  0
  1  2  1  0
  2  3  2  0
  2  4  1  0
  4  5  1  0
  5  6  1  0
  6  7  1  0
  7  8  1  0
  8  9  2  0
  8 10  1  0
 10 11  1  0
 11 12  1  0
 10 13  1  0
 13 14  1  0
 14 15  1  0
 15 16  1  0
 16 17  2  0
 16 18  1  0
 19 18  1  0
 19 20  1  0
 19 21  1  0
 19 22  1  0
  7 23  1  0
  4 24  1  0
 23 24  1  0
M  END
