piperidine-amides-21528-covalent
     RDKit          3D

 23 25  0  0  0  0  0  0  0  0999 V2000
    7.0580   -3.3030   19.3110 C   0  0  0  0  0  0  0  0  0  0  0  0
    6.3800   -4.1190   20.3260 C   0  0  0  0  0  0  0  0  0  0  0  0
    5.3410   -4.7220   19.9470 O   0  0  0  0  0  0  0  0  0  0  0  0
    6.9030   -4.2410   21.6200 N   0  0  0  0  0  0  0  0  0  0  0  0
    6.7340   -5.4800   22.3510 C   0  0  0  0  0  0  0  0  0  0  0  0
    6.0720   -5.1430   23.6540 C   0  0  0  0  0  0  0  0  0  0  0  0
    5.9380   -3.6570   23.7660 C   0  0  0  0  0  0  0  0  0  0  0  0
    5.3710   -3.2680   25.0740 C   0  0  0  0  0  0  0  0  0  0  0  0
    4.1380   -3.0860   25.1210 O   0  0  0  0  0  0  0  0  0  0  0  0
    6.0780   -3.0870   26.2670 N   0  0  0  0  0  0  0  0  0  0  0  0
    6.2280   -1.7320   26.7640 C   0  0  0  0  0  0  0  0  0  0  0  0
    5.8270   -2.2170   28.0530 C   0  0  0  0  0  0  0  0  0  0  0  0
    6.5780   -2.2240   29.1820 C   0  0  0  0  0  0  0  0  0  0  0  0
    6.5110   -1.1500   30.0360 C   0  0  0  0  0  0  0  0  0  0  0  0
    5.3500   -0.5930   30.5380 C   0  0  0  0  0  0  0  0  0  0  0  0
    5.3960    0.4890   31.3940 C   0  0  0  0  0  0  0  0  0  0  0  0
    6.5800    1.0740   31.8010 C   0  0  0  0  0  0  0  0  0  0  0  0
    6.6120    2.1240   32.6340 F   0  0  0  0  0  0  0  0  0  0  0  0
    7.9020    0.5310   31.3030 C   0  0  0  0  0  0  0  0  0  0  0  0
    7.7520   -0.6620   30.3630 C   0  0  0  0  0  0  0  0  0  0  0  0
    5.8050   -3.5370   27.6990 C   0  0  0  0  0  0  0  0  0  0  0  0
    7.2500   -2.9760   23.5280 C   0  0  0  0  0  0  0  0  0  0  0  0
    7.7240   -3.1850   22.2470 C   0  0  0  0  0  0  0  0  0  0  0  0
  1  2  1  0
  2  3  2  0
  2  4  1  0
  4  5  1  0
  5  6  1  0
  6  7  1  0
  7  8  1  0
  8  9  2  0
  8 10  1  0
 10 11  1  0
 11 12  1  0
 12 13  1  0
 13 14  1  0
 14 15  2  0
 15 16  1  0
 16 17  2  0
 17 18  1  0
 17 19  1  0
 14 20  1  0
 19 20  2  0
 10 21  1  0
 12 21  1  0
  7 22  1  0
  4 23  1  0
 22 23  1  0
M  END
