piperidine-amides-17255-covalent
     RDKit          3D

 20 21  0  0  0  0  0  0  0  0999 V2000
    7.0300   -3.3800   19.4150 C   0  0  0  0  0  0  0  0  0  0  0  0
    6.4010   -4.2660   20.4100 C   0  0  0  0  0  0  0  0  0  0  0  0
    5.4150   -4.9350   20.0070 O   0  0  0  0  0  0  0  0  0  0  0  0
    6.9160   -4.3810   21.7370 N   0  0  0  0  0  0  0  0  0  0  0  0
    6.5750   -5.5220   22.5280 C   0  0  0  0  0  0  0  0  0  0  0  0
    6.0800   -5.1780   23.8660 C   0  0  0  0  0  0  0  0  0  0  0  0
    6.0200   -3.7220   24.0850 C   0  0  0  0  0  0  0  0  0  0  0  0
    5.3310   -3.2610   25.3670 C   0  0  0  0  0  0  0  0  0  0  0  0
    4.6050   -2.2630   25.2710 O   0  0  0  0  0  0  0  0  0  0  0  0
    5.4250   -3.8430   26.6650 N   0  0  0  0  0  0  0  0  0  0  0  0
    6.4770   -3.7010   27.5270 C   0  0  0  0  0  0  0  0  0  0  0  0
    6.8790   -4.8830   28.2900 C   0  0  0  0  0  0  0  0  0  0  0  0
    5.6380   -5.2500   29.0340 C   0  0  0  0  0  0  0  0  0  0  0  0
    4.7100   -4.2490   28.8650 C   0  0  2  0  0  0  0  0  0  0  0  0
    3.5890   -5.2740   29.1150 C   0  0  1  0  0  0  0  0  0  0  0  0
    2.7190   -4.1880   29.6570 C   0  0  0  0  0  0  0  0  0  0  0  0
    2.9410   -5.8180   28.0120 O   0  0  0  0  0  0  0  0  0  0  0  0
    4.2420   -3.9740   27.4630 C   0  0  0  0  0  0  0  0  0  0  0  0
    7.3240   -3.0270   23.7780 C   0  0  0  0  0  0  0  0  0  0  0  0
    7.6960   -3.2940   22.3200 C   0  0  0  0  0  0  0  0  0  0  0  0
  1  2  1  0
  2  3  2  0
  2  4  1  0
  4  5  1  0
  5  6  1  0
  6  7  1  0
  7  8  1  0
  8  9  2  0
  8 10  1  0
 10 11  1  0
 11 12  1  0
 12 13  1  0
 14 13  1  6
 14 15  1  0
 15 16  1  1
 15 17  1  0
 10 18  1  0
 14 18  1  0
  7 19  1  0
  4 20  1  0
 19 20  1  0
M  END
