piperidine-amides-24712-covalent
     RDKit          3D

 24 25  0  0  0  0  0  0  0  0999 V2000
    7.1170   -3.3210   19.3060 C   0  0  0  0  0  0  0  0  0  0  0  0
    6.4350   -4.1920   20.2700 C   0  0  0  0  0  0  0  0  0  0  0  0
    5.3740   -4.7770   19.9630 O   0  0  0  0  0  0  0  0  0  0  0  0
    7.0110   -4.4270   21.5210 N   0  0  0  0  0  0  0  0  0  0  0  0
    6.5720   -5.5860   22.2460 C   0  0  0  0  0  0  0  0  0  0  0  0
    5.6780   -5.0240   23.3460 C   0  0  0  0  0  0  0  0  0  0  0  0
    6.5410   -4.0580   24.1360 C   0  0  0  0  0  0  0  0  0  0  0  0
    5.7150   -3.4670   25.1890 C   0  0  0  0  0  0  0  0  0  0  0  0
    4.7670   -2.7330   24.8510 O   0  0  0  0  0  0  0  0  0  0  0  0
    5.9740   -3.7200   26.5440 N   0  0  0  0  0  0  0  0  0  0  0  0
    5.0520   -4.5920   27.1700 C   0  0  0  0  0  0  0  0  0  0  0  0
    5.8150   -5.3550   28.2000 C   0  0  0  0  0  0  0  0  0  0  0  0
    6.5120   -4.5930   29.0460 C   0  0  0  0  0  0  0  0  0  0  0  0
    6.4240   -3.2440   28.8290 C   0  0  2  0  0  0  0  0  0  0  0  0
    5.4310   -2.6090   29.5990 C   0  0  0  0  0  0  0  0  0  0  0  0
    4.1680   -3.1000   29.6270 O   0  0  0  0  0  0  0  0  0  0  0  0
    5.8580   -1.5130   30.2810 N   0  0  0  0  0  0  0  0  0  0  0  0
    4.9620   -0.7880   31.1270 C   0  0  0  0  0  0  0  0  0  0  0  0
    6.7970   -0.6400   29.8740 C   0  0  0  0  0  0  0  0  0  0  0  0
    7.1810    0.1310   31.1150 C   0  0  0  0  0  0  0  0  0  0  0  0
    7.9200   -1.2970   29.2390 C   0  0  0  0  0  0  0  0  0  0  0  0
    6.3390   -2.7520   27.5320 C   0  0  0  0  0  0  0  0  0  0  0  0
    7.0320   -2.9250   23.2860 C   0  0  0  0  0  0  0  0  0  0  0  0
    7.6740   -3.3500   22.1730 C   0  0  0  0  0  0  0  0  0  0  0  0
  1  2  1  0
  2  3  2  0
  2  4  1  0
  4  5  1  0
  5  6  1  0
  6  7  1  0
  7  8  1  0
  8  9  2  0
  8 10  1  0
 10 11  1  0
 11 12  1  0
 12 13  1  0
 13 14  1  0
 14 15  1  1
 15 16  2  0
 15 17  1  0
 17 18  1  0
 17 19  1  0
 19 20  1  0
 19 21  1  0
 10 22  1  0
 14 22  1  0
  7 23  1  0
  4 24  1  0
 23 24  1  0
M  END
