piperidine-amides-7401-covalent
     RDKit          3D

 19 19  0  0  0  0  0  0  0  0999 V2000
    7.1120   -3.2760   19.1940 C   0  0  0  0  0  0  0  0  0  0  0  0
    6.3400   -3.9990   20.2110 C   0  0  0  0  0  0  0  0  0  0  0  0
    5.2410   -4.4900   19.8550 O   0  0  0  0  0  0  0  0  0  0  0  0
    6.8570   -4.1630   21.4920 N   0  0  0  0  0  0  0  0  0  0  0  0
    7.6410   -3.1270   22.1180 C   0  0  0  0  0  0  0  0  0  0  0  0
    6.9130   -2.6660   23.3410 C   0  0  0  0  0  0  0  0  0  0  0  0
    6.5180   -3.8370   24.1960 C   0  0  0  0  0  0  0  0  0  0  0  0
    5.8240   -3.3620   25.4130 C   0  0  0  0  0  0  0  0  0  0  0  0
    4.5920   -3.1440   25.3360 O   0  0  0  0  0  0  0  0  0  0  0  0
    6.4820   -3.1420   26.6440 N   0  0  0  0  0  0  0  0  0  0  0  0
    6.0060   -3.7040   27.8920 C   0  0  0  0  0  0  0  0  0  0  0  0
    6.7040   -4.9890   28.3410 C   0  0  0  0  0  0  0  0  0  0  0  0
    6.8410   -6.1850   28.6880 O   0  0  0  0  0  0  0  0  0  0  0  0
    5.2540   -5.2560   28.2100 N   0  0  0  0  0  0  0  0  0  0  0  0
    4.5600   -5.6750   29.2620 C   0  0  0  0  0  0  0  0  0  0  0  0
    3.4530   -6.4750   29.0580 C   0  0  0  0  0  0  0  0  0  0  0  0
    2.2190   -6.1200   29.4710 N   0  0  0  0  0  0  0  0  0  0  0  0
    5.6340   -4.7620   23.3840 C   0  0  0  0  0  0  0  0  0  0  0  0
    6.3450   -5.2460   22.3050 C   0  0  0  0  0  0  0  0  0  0  0  0
  1  2  1  0
  2  3  2  0
  2  4  1  0
  4  5  1  0
  5  6  1  0
  6  7  1  0
  7  8  1  0
  8  9  2  0
  8 10  1  0
 10 11  1  0
 11 12  1  0
 12 13  2  0
 12 14  1  0
 14 15  1  0
 15 16  1  0
 16 17  3  0
  7 18  1  0
  4 19  1  0
 18 19  1  0
M  END
