piperidine-amides-4904-covalent
     RDKit          3D

 20 21  0  0  0  0  0  0  0  0999 V2000
    7.1330   -3.2600   19.1110 C   0  0  0  0  0  0  0  0  0  0  0  0
    6.3320   -3.9650   20.1400 C   0  0  0  0  0  0  0  0  0  0  0  0
    5.2130   -4.3810   19.8000 O   0  0  0  0  0  0  0  0  0  0  0  0
    6.8380   -4.2110   21.4180 N   0  0  0  0  0  0  0  0  0  0  0  0
    7.5880   -3.1870   22.0780 C   0  0  0  0  0  0  0  0  0  0  0  0
    7.2770   -2.9860   23.4930 C   0  0  0  0  0  0  0  0  0  0  0  0
    6.4720   -4.0410   24.1450 C   0  0  0  0  0  0  0  0  0  0  0  0
    5.6590   -3.4370   25.2140 C   0  0  0  0  0  0  0  0  0  0  0  0
    4.4190   -3.4920   25.1430 O   0  0  0  0  0  0  0  0  0  0  0  0
    6.2810   -2.8020   26.2860 N   0  0  0  0  0  0  0  0  0  0  0  0
    6.1110   -3.2520   27.6710 C   0  0  0  0  0  0  0  0  0  0  0  0
    6.9080   -2.3660   28.5360 C   0  0  0  0  0  0  0  0  0  0  0  0
    6.2750   -1.6100   29.6020 C   0  0  0  0  0  0  0  0  0  0  0  0
    7.0640   -0.8610   30.4570 C   0  0  0  0  0  0  0  0  0  0  0  0
    6.1700   -0.2530   31.3770 N   0  0  0  0  0  0  0  0  0  0  0  0
    6.5900    0.6160   32.4530 C   0  0  0  0  0  0  0  0  0  0  0  0
    4.9430   -0.6710   31.0100 C   0  0  0  0  0  0  0  0  0  0  0  0
    4.9830   -1.5220   29.9020 N   0  0  0  0  0  0  0  0  0  0  0  0
    5.6660   -4.9490   23.2790 C   0  0  0  0  0  0  0  0  0  0  0  0
    6.4070   -5.3190   22.2050 C   0  0  0  0  0  0  0  0  0  0  0  0
  1  2  1  0
  2  3  2  0
  2  4  1  0
  4  5  1  0
  5  6  1  0
  6  7  1  0
  7  8  1  0
  8  9  2  0
  8 10  1  0
 10 11  1  0
 11 12  1  0
 12 13  1  0
 13 14  2  0
 14 15  1  0
 15 16  1  0
 15 17  1  0
 13 18  1  0
 17 18  2  0
  7 19  1  0
  4 20  1  0
 19 20  1  0
M  END
