piperidine-amides-25807-covalent
     RDKit          3D

 23 24  0  0  0  0  0  0  0  0999 V2000
    7.0730   -3.3540   19.3820 C   0  0  0  0  0  0  0  0  0  0  0  0
    6.3740   -4.1850   20.3890 C   0  0  0  0  0  0  0  0  0  0  0  0
    5.3940   -4.8190   19.9860 O   0  0  0  0  0  0  0  0  0  0  0  0
    6.8490   -4.2770   21.7090 N   0  0  0  0  0  0  0  0  0  0  0  0
    6.7090   -5.5090   22.4450 C   0  0  0  0  0  0  0  0  0  0  0  0
    6.1390   -5.2400   23.8150 C   0  0  0  0  0  0  0  0  0  0  0  0
    6.1300   -3.7380   24.0830 C   0  0  0  0  0  0  0  0  0  0  0  0
    5.5710   -3.5150   25.4530 C   0  0  0  0  0  0  0  0  0  0  0  0
    4.3930   -3.8630   25.6140 O   0  0  0  0  0  0  0  0  0  0  0  0
    6.2170   -2.9100   26.5710 N   0  0  0  0  0  0  0  0  0  0  0  0
    5.3780   -2.1820   27.4990 C   0  0  0  0  0  0  0  0  0  0  0  0
    5.0390   -3.0360   28.7100 C   0  0  0  0  0  0  0  0  0  0  0  0
    4.4660   -4.2680   28.6310 C   0  0  0  0  0  0  0  0  0  0  0  0
    5.2710   -5.2450   29.0730 C   0  0  0  0  0  0  0  0  0  0  0  0
    6.5770   -4.9170   28.9170 C   0  0  0  0  0  0  0  0  0  0  0  0
    7.2900   -4.7990   27.6020 C   0  0  2  0  0  0  0  0  0  0  0  0
    8.7010   -5.7330   27.2850 S   0  0  0  0  0  0  0  0  0  0  0  0
    9.4070   -5.2700   25.7150 C   0  0  0  0  0  0  0  0  0  0  0  0
    8.2880   -7.0820   27.1340 O   0  0  0  0  0  0  0  0  0  0  0  0
    9.7250   -5.6540   28.3230 O   0  0  0  0  0  0  0  0  0  0  0  0
    7.4450   -3.3800   27.1440 C   0  0  0  0  0  0  0  0  0  0  0  0
    7.3690   -3.0410   23.7060 C   0  0  0  0  0  0  0  0  0  0  0  0
    7.6870   -3.2190   22.2520 C   0  0  0  0  0  0  0  0  0  0  0  0
  1  2  1  0
  2  3  2  0
  2  4  1  0
  4  5  1  0
  5  6  1  0
  6  7  1  0
  7  8  1  0
  8  9  2  0
  8 10  1  0
 10 11  1  0
 11 12  1  0
 12 13  1  0
 13 14  1  0
 14 15  1  0
 15 16  1  0
 16 17  1  1
 17 18  1  0
 17 19  2  0
 17 20  2  0
 10 21  1  0
 16 21  1  0
  7 22  1  0
  4 23  1  0
 22 23  1  0
M  END
