piperidine-amides-8320-covalent
     RDKit          3D

 25 26  0  0  0  0  0  0  0  0999 V2000
    7.0820   -3.2720   19.2310 C   0  0  0  0  0  0  0  0  0  0  0  0
    6.3610   -4.0590   20.2310 C   0  0  0  0  0  0  0  0  0  0  0  0
    5.2850   -4.5850   19.8970 O   0  0  0  0  0  0  0  0  0  0  0  0
    6.9140   -4.2560   21.5230 N   0  0  0  0  0  0  0  0  0  0  0  0
    6.5120   -5.4060   22.2720 C   0  0  0  0  0  0  0  0  0  0  0  0
    5.7110   -4.9520   23.4550 C   0  0  0  0  0  0  0  0  0  0  0  0
    6.5380   -3.8890   24.1430 C   0  0  0  0  0  0  0  0  0  0  0  0
    5.7890   -3.3200   25.3160 C   0  0  0  0  0  0  0  0  0  0  0  0
    4.7310   -2.7600   25.0450 O   0  0  0  0  0  0  0  0  0  0  0  0
    6.3130   -3.4590   26.6030 N   0  0  0  0  0  0  0  0  0  0  0  0
    6.1770   -4.6550   27.3800 C   0  0  0  0  0  0  0  0  0  0  0  0
    4.8920   -4.9930   27.7690 C   0  0  0  0  0  0  0  0  0  0  0  0
    3.8130   -4.2720   27.2860 C   0  0  0  0  0  0  0  0  0  0  0  0
    3.8350   -2.8860   27.3940 C   0  0  0  0  0  0  0  0  0  0  0  0
    2.6710   -2.1160   26.8670 C   0  0  0  0  0  0  0  0  0  0  0  0
    1.4530   -2.7680   26.2130 C   0  0  0  0  0  0  0  0  0  0  0  0
    1.4670   -4.2440   26.1200 C   0  0  0  0  0  0  0  0  0  0  0  0
    2.7080   -4.8960   26.6940 C   0  0  0  0  0  0  0  0  0  0  0  0
    2.7770   -6.1550   26.6450 O   0  0  0  0  0  0  0  0  0  0  0  0
    1.7510   -7.0880   26.6420 C   0  0  0  0  0  0  0  0  0  0  0  0
    1.6100   -7.6130   27.9060 F   0  0  0  0  0  0  0  0  0  0  0  0
    0.4760   -6.6220   26.3020 F   0  0  0  0  0  0  0  0  0  0  0  0
    2.0880   -8.1280   25.8480 F   0  0  0  0  0  0  0  0  0  0  0  0
    6.7850   -2.7410   23.1920 C   0  0  0  0  0  0  0  0  0  0  0  0
    7.6220   -3.1940   22.1980 C   0  0  0  0  0  0  0  0  0  0  0  0
  1  2  1  0
  2  3  2  0
  2  4  1  0
  4  5  1  0
  5  6  1  0
  6  7  1  0
  7  8  1  0
  8  9  2  0
  8 10  1  0
 10 11  1  0
 11 12  1  0
 12 13  1  0
 13 14  2  0
 14 15  1  0
 15 16  2  0
 16 17  1  0
 13 18  1  0
 17 18  2  0
 18 19  1  0
 19 20  1  0
 20 21  1  0
 20 22  1  0
 20 23  1  0
  7 24  1  0
  4 25  1  0
 24 25  1  0
M  END
