piperidine-amides-24374-covalent
     RDKit          3D

 23 25  0  0  0  0  0  0  0  0999 V2000
    7.0210   -3.3390   19.3770 C   0  0  0  0  0  0  0  0  0  0  0  0
    6.3620   -4.2190   20.3560 C   0  0  0  0  0  0  0  0  0  0  0  0
    5.3880   -4.9130   19.9940 O   0  0  0  0  0  0  0  0  0  0  0  0
    6.8280   -4.3240   21.6800 N   0  0  0  0  0  0  0  0  0  0  0  0
    6.7570   -5.6250   22.3150 C   0  0  0  0  0  0  0  0  0  0  0  0
    6.2840   -5.4000   23.7560 C   0  0  0  0  0  0  0  0  0  0  0  0
    6.1220   -3.9120   23.8860 C   0  0  0  0  0  0  0  0  0  0  0  0
    5.4970   -3.5220   25.1760 C   0  0  0  0  0  0  0  0  0  0  0  0
    4.3640   -3.0030   25.1140 O   0  0  0  0  0  0  0  0  0  0  0  0
    6.1190   -3.7150   26.4300 N   0  0  0  0  0  0  0  0  0  0  0  0
    6.5120   -2.5480   27.1580 C   0  0  0  0  0  0  0  0  0  0  0  0
    6.7830   -2.8700   28.6060 C   0  0  0  0  0  0  0  0  0  0  0  0
    5.4520   -2.9250   29.1340 N   0  0  0  0  0  0  0  0  0  0  0  0
    4.7280   -1.7750   29.6700 C   0  0  0  0  0  0  0  0  0  0  0  0
    5.5070   -0.6470   29.5610 C   0  0  0  0  0  0  0  0  0  0  0  0
    5.3520    0.3340   28.5520 C   0  0  0  0  0  0  0  0  0  0  0  0
    6.2380    1.3860   28.6400 C   0  0  0  0  0  0  0  0  0  0  0  0
    7.2960    1.1500   30.0240 S   0  0  0  0  0  0  0  0  0  0  0  0
    6.5330   -0.3790   30.4730 C   0  0  0  0  0  0  0  0  0  0  0  0
    4.7440   -3.9420   28.4690 C   0  0  0  0  0  0  0  0  0  0  0  0
    5.8810   -4.4760   27.6560 C   0  0  0  0  0  0  0  0  0  0  0  0
    7.4380   -3.2260   23.6360 C   0  0  0  0  0  0  0  0  0  0  0  0
    7.6860   -3.2940   22.2500 C   0  0  0  0  0  0  0  0  0  0  0  0
  1  2  1  0
  2  3  2  0
  2  4  1  0
  4  5  1  0
  5  6  1  0
  6  7  1  0
  7  8  1  0
  8  9  2  0
  8 10  1  0
 10 11  1  0
 11 12  1  0
 12 13  1  0
 13 14  1  0
 14 15  1  0
 15 16  1  0
 16 17  2  0
 17 18  1  0
 15 19  2  0
 18 19  1  0
 13 20  1  0
 10 21  1  0
 20 21  1  0
  7 22  1  0
  4 23  1  0
 22 23  1  0
M  END
