piperidine-amides-30272-covalent
     RDKit          3D

 24 25  0  0  0  0  0  0  0  0999 V2000
    7.0300   -3.3260   19.2560 C   0  0  0  0  0  0  0  0  0  0  0  0
    6.3200   -4.1160   20.2590 C   0  0  0  0  0  0  0  0  0  0  0  0
    5.3170   -4.7490   19.9470 O   0  0  0  0  0  0  0  0  0  0  0  0
    6.8180   -4.1900   21.6010 N   0  0  0  0  0  0  0  0  0  0  0  0
    7.6700   -3.1470   22.1190 C   0  0  0  0  0  0  0  0  0  0  0  0
    7.4980   -3.0380   23.5940 C   0  0  0  0  0  0  0  0  0  0  0  0
    6.1230   -3.5900   23.9080 C   0  0  0  0  0  0  0  0  0  0  0  0
    5.7280   -3.3000   25.3110 C   0  0  0  0  0  0  0  0  0  0  0  0
    4.5660   -3.4860   25.7190 O   0  0  0  0  0  0  0  0  0  0  0  0
    6.6940   -2.7750   26.2070 N   0  0  0  0  0  0  0  0  0  0  0  0
    7.4940   -3.6830   26.9800 C   0  0  0  0  0  0  0  0  0  0  0  0
    8.3280   -4.4660   26.0010 C   0  0  0  0  0  0  0  0  0  0  0  0
    8.9200   -5.5070   26.6520 O   0  0  0  0  0  0  0  0  0  0  0  0
    8.8620   -5.6960   27.9900 C   0  0  0  0  0  0  0  0  0  0  0  0
    6.3770   -1.4540   26.8480 C   0  0  0  0  0  0  0  0  0  0  0  0
    5.9020   -0.2780   26.2530 N   0  0  0  0  0  0  0  0  0  0  0  0
    5.6070    0.9450   26.8580 C   0  0  0  0  0  0  0  0  0  0  0  0
    5.0220    2.2970   25.9030 Cl  0  0  0  0  0  0  0  0  0  0  0  0
    5.8180    1.0040   28.2980 N   0  0  0  0  0  0  0  0  0  0  0  0
    6.2960   -0.1630   28.9530 C   0  0  0  0  0  0  0  0  0  0  0  0
    6.5600   -0.1360   30.6510 Cl  0  0  0  0  0  0  0  0  0  0  0  0
    6.5250   -1.2610   28.1650 N   0  0  0  0  0  0  0  0  0  0  0  0
    5.9440   -5.0590   23.5810 C   0  0  0  0  0  0  0  0  0  0  0  0
    6.6420   -5.3870   22.4340 C   0  0  0  0  0  0  0  0  0  0  0  0
  1  2  1  0
  2  3  2  0
  2  4  1  0
  4  5  1  0
  5  6  1  0
  6  7  1  0
  7  8  1  0
  8  9  2  0
  8 10  1  0
 10 11  1  0
 11 12  1  0
 12 13  1  0
 13 14  1  0
 10 15  1  0
 15 16  2  0
 16 17  1  0
 17 18  1  0
 17 19  2  0
 19 20  1  0
 20 21  1  0
 15 22  1  0
 20 22  2  0
  7 23  1  0
  4 24  1  0
 23 24  1  0
M  END
