piperidine-amides-11467-covalent
     RDKit          3D

 20 22  0  0  0  0  0  0  0  0999 V2000
    7.0530   -3.3390   19.3120 C   0  0  0  0  0  0  0  0  0  0  0  0
    6.3720   -4.1450   20.3300 C   0  0  0  0  0  0  0  0  0  0  0  0
    5.4000   -4.8420   19.9880 O   0  0  0  0  0  0  0  0  0  0  0  0
    6.8240   -4.1750   21.6650 N   0  0  0  0  0  0  0  0  0  0  0  0
    7.7580   -3.1820   22.1630 C   0  0  0  0  0  0  0  0  0  0  0  0
    7.5150   -3.0750   23.6370 C   0  0  0  0  0  0  0  0  0  0  0  0
    6.1430   -3.5550   23.9740 C   0  0  0  0  0  0  0  0  0  0  0  0
    5.7060   -3.2070   25.3450 C   0  0  0  0  0  0  0  0  0  0  0  0
    4.5110   -3.4210   25.7020 O   0  0  0  0  0  0  0  0  0  0  0  0
    6.5720   -2.6220   26.2940 N   0  0  0  0  0  0  0  0  0  0  0  0
    6.0760   -1.6310   27.2820 C   0  0  2  0  0  0  0  0  0  0  0  0
    5.8920   -0.3330   26.5890 C   0  0  0  0  0  0  0  0  0  0  0  0
    5.9470    0.8670   27.4510 C   0  0  0  0  0  0  0  0  0  0  0  0
    5.0520    0.7810   28.6610 C   0  0  1  0  0  0  0  0  0  0  0  0
    4.3120   -0.3890   28.7750 C   0  0  0  0  0  0  0  0  0  0  0  0
    5.5480   -0.2900   29.7120 C   0  0  1  0  0  0  0  0  0  0  0  0
    6.8310   -0.6460   29.4040 C   0  0  0  0  0  0  0  0  0  0  0  0
    7.1160   -1.5250   28.3490 C   0  0  0  0  0  0  0  0  0  0  0  0
    5.9830   -5.0670   23.7540 C   0  0  0  0  0  0  0  0  0  0  0  0
    6.6480   -5.4080   22.4090 C   0  0  0  0  0  0  0  0  0  0  0  0
  1  2  1  0
  2  3  2  0
  2  4  1  0
  4  5  1  0
  5  6  1  0
  6  7  1  0
  7  8  1  0
  8  9  2  0
  8 10  1  0
 11 10  1  6
 11 12  1  0
 12 13  1  0
 14 13  1  6
 14 15  1  0
 14 16  1  0
 16 15  1  6
 16 17  1  0
 11 18  1  0
 17 18  1  0
  7 19  1  0
  4 20  1  0
 19 20  1  0
M  END
