piperidine-amides-1762-covalent
     RDKit          3D

 20 20  0  0  0  0  0  0  0  0999 V2000
    7.1530   -3.2840   19.2270 C   0  0  0  0  0  0  0  0  0  0  0  0
    6.3320   -4.0290   20.2160 C   0  0  0  0  0  0  0  0  0  0  0  0
    5.2480   -4.5140   19.8670 O   0  0  0  0  0  0  0  0  0  0  0  0
    6.8440   -4.2070   21.5120 N   0  0  0  0  0  0  0  0  0  0  0  0
    7.7030   -3.2360   22.1380 C   0  0  0  0  0  0  0  0  0  0  0  0
    6.9580   -2.7190   23.3620 C   0  0  0  0  0  0  0  0  0  0  0  0
    6.4500   -3.9260   24.0730 C   0  0  0  0  0  0  0  0  0  0  0  0
    5.6550   -3.5810   25.2620 C   0  0  0  0  0  0  0  0  0  0  0  0
    4.4270   -3.5240   25.1350 O   0  0  0  0  0  0  0  0  0  0  0  0
    6.3260   -3.3230   26.4470 N   0  0  0  0  0  0  0  0  0  0  0  0
    6.0710   -3.8430   27.7330 C   0  0  1  0  0  0  0  0  0  0  0  0
    6.2510   -5.1540   28.1300 C   0  0  0  0  0  0  0  0  0  0  0  0
    6.9630   -3.0110   28.6320 C   0  0  0  0  0  0  0  0  0  0  0  0
    7.6100   -2.0260   29.3530 O   0  0  0  0  0  0  0  0  0  0  0  0
    6.3310   -1.7400   28.3470 N   0  0  0  0  0  0  0  0  0  0  0  0
    6.5090   -1.0310   27.2090 C   0  0  0  0  0  0  0  0  0  0  0  0
    5.7310   -1.1450   29.4000 C   0  0  0  0  0  0  0  0  0  0  0  0
    6.5750   -0.2280   30.3010 C   0  0  0  0  0  0  0  0  0  0  0  0
    5.6450   -4.8960   23.2570 C   0  0  0  0  0  0  0  0  0  0  0  0
    6.4560   -5.3710   22.2490 C   0  0  0  0  0  0  0  0  0  0  0  0
  1  2  1  0
  2  3  2  0
  2  4  1  0
  4  5  1  0
  5  6  1  0
  6  7  1  0
  7  8  1  0
  8  9  2  0
  8 10  1  0
 10 11  1  0
 11 12  1  6
 11 13  1  0
 13 14  2  0
 13 15  1  0
 15 16  1  0
 15 17  1  0
 17 18  1  0
  7 19  1  0
  4 20  1  0
 19 20  1  0
M  END
