piperidine-amides-11597-covalent
     RDKit          3D

 29 31  0  0  0  0  0  0  0  0999 V2000
    7.1050   -3.2880   19.2410 C   0  0  0  0  0  0  0  0  0  0  0  0
    6.3670   -4.0490   20.2520 C   0  0  0  0  0  0  0  0  0  0  0  0
    5.3310   -4.6520   19.9250 O   0  0  0  0  0  0  0  0  0  0  0  0
    6.8300   -4.1520   21.5740 N   0  0  0  0  0  0  0  0  0  0  0  0
    7.7620   -3.1740   22.1130 C   0  0  0  0  0  0  0  0  0  0  0  0
    7.3430   -2.8720   23.5190 C   0  0  0  0  0  0  0  0  0  0  0  0
    6.0120   -3.4660   23.8400 C   0  0  0  0  0  0  0  0  0  0  0  0
    5.6480   -3.1900   25.2390 C   0  0  0  0  0  0  0  0  0  0  0  0
    4.4450   -3.2550   25.6270 O   0  0  0  0  0  0  0  0  0  0  0  0
    6.6280   -2.8390   26.1820 N   0  0  0  0  0  0  0  0  0  0  0  0
    6.3480   -1.8580   27.2440 C   0  0  0  0  0  0  0  0  0  0  0  0
    5.5460   -2.5470   28.2730 C   0  0  0  0  0  0  0  0  0  0  0  0
    5.1640   -3.9600   28.1450 C   0  0  0  0  0  0  0  0  0  0  0  0
    4.3390   -4.5330   29.2680 C   0  0  0  0  0  0  0  0  0  0  0  0
    3.9610   -3.6420   30.4340 C   0  0  0  0  0  0  0  0  0  0  0  0
    4.4320   -2.2300   30.4160 C   0  0  0  0  0  0  0  0  0  0  0  0
    4.1060   -1.4170   31.4660 C   0  0  0  0  0  0  0  0  0  0  0  0
    3.3440   -1.8880   32.5150 C   0  0  0  0  0  0  0  0  0  0  0  0
    2.9780   -1.0400   33.6600 C   0  0  0  0  0  0  0  0  0  0  0  0
    3.5030    0.3750   33.5900 C   0  0  0  0  0  0  0  0  0  0  0  0
    4.3500    0.9470   32.4500 C   0  0  0  0  0  0  0  0  0  0  0  0
    4.9710    1.8090   31.8820 C   0  0  0  0  0  0  0  0  0  0  0  0
    4.3680    2.7640   31.3390 O   0  0  0  0  0  0  0  0  0  0  0  0
    6.2210    1.7580   31.8210 O   0  0  0  0  0  0  0  0  0  0  0  0
    6.9400    1.3070   30.6770 C   0  0  0  0  0  0  0  0  0  0  0  0
    4.5400   -0.0850   31.5010 C   0  0  0  0  0  0  0  0  0  0  0  0
    5.1840   -1.7250   29.3820 C   0  0  0  0  0  0  0  0  0  0  0  0
    5.9270   -4.9380   23.6260 C   0  0  0  0  0  0  0  0  0  0  0  0
    6.6500   -5.3490   22.3660 C   0  0  0  0  0  0  0  0  0  0  0  0
  1  2  1  0
  2  3  2  0
  2  4  1  0
  4  5  1  0
  5  6  1  0
  6  7  1  0
  7  8  1  0
  8  9  2  0
  8 10  1  0
 10 11  1  0
 11 12  1  0
 12 13  2  0
 13 14  1  0
 14 15  2  0
 15 16  1  0
 16 17  1  0
 17 18  2  0
 18 19  1  0
 19 20  2  0
 20 21  1  0
 21 22  1  0
 22 23  2  0
 22 24  1  0
 24 25  1  0
 17 26  1  0
 21 26  2  0
 12 27  1  0
 16 27  2  0
  7 28  1  0
  4 29  1  0
 28 29  1  0
M  END
