piperidine-amides-32321-covalent
     RDKit          3D

 28 29  0  0  0  0  0  0  0  0999 V2000
    7.1430   -3.3430   19.3300 C   0  0  0  0  0  0  0  0  0  0  0  0
    6.3950   -4.1580   20.3170 C   0  0  0  0  0  0  0  0  0  0  0  0
    5.3510   -4.7360   19.9590 O   0  0  0  0  0  0  0  0  0  0  0  0
    6.9350   -4.2900   21.6140 N   0  0  0  0  0  0  0  0  0  0  0  0
    7.7820   -3.2370   22.1680 C   0  0  0  0  0  0  0  0  0  0  0  0
    7.6310   -3.2390   23.6940 C   0  0  0  0  0  0  0  0  0  0  0  0
    6.2400   -3.6780   23.9480 C   0  0  0  0  0  0  0  0  0  0  0  0
    5.5810   -3.0770   25.1290 C   0  0  0  0  0  0  0  0  0  0  0  0
    4.4640   -2.6080   24.9040 O   0  0  0  0  0  0  0  0  0  0  0  0
    6.1420   -3.0900   26.4050 N   0  0  0  0  0  0  0  0  0  0  0  0
    5.8420   -4.2750   27.1540 C   0  0  0  0  0  0  0  0  0  0  0  0
    6.3300   -4.7210   28.3520 C   0  0  0  0  0  0  0  0  0  0  0  0
    5.3830   -5.1940   29.2620 C   0  0  0  0  0  0  0  0  0  0  0  0
    5.6820   -6.2800   30.0690 O   0  0  0  0  0  0  0  0  0  0  0  0
    4.1370   -4.6190   29.4010 O   0  0  0  0  0  0  0  0  0  0  0  0
    3.9130   -3.2200   29.2470 C   0  0  0  0  0  0  0  0  0  0  0  0
    6.2780   -1.8230   27.1390 C   0  0  0  0  0  0  0  0  0  0  0  0
    6.9760   -1.8830   28.4940 C   0  0  0  0  0  0  0  0  0  0  0  0
    7.1190   -0.6000   29.2810 C   0  0  0  0  0  0  0  0  0  0  0  0
    6.6420    0.5910   28.8060 C   0  0  0  0  0  0  0  0  0  0  0  0
    6.8250    1.6890   29.6080 F   0  0  0  0  0  0  0  0  0  0  0  0
    5.9490    0.8170   27.5130 C   0  0  0  0  0  0  0  0  0  0  0  0
    5.7790   -0.4580   26.6760 C   0  0  0  0  0  0  0  0  0  0  0  0
    5.2150   -0.6740   25.4790 N   0  0  0  0  0  0  0  0  0  0  0  0
    5.7510   -0.0780   24.3640 O   0  0  0  0  0  0  0  0  0  0  0  0
    3.8530   -0.7920   25.4990 O   0  0  0  0  0  0  0  0  0  0  0  0
    6.2510   -5.1370   23.8260 C   0  0  0  0  0  0  0  0  0  0  0  0
    6.6660   -5.4770   22.3870 C   0  0  0  0  0  0  0  0  0  0  0  0
  1  2  1  0
  2  3  2  0
  2  4  1  0
  4  5  1  0
  5  6  1  0
  6  7  1  0
  7  8  1  0
  8  9  2  0
  8 10  1  0
 10 11  1  0
 11 12  1  0
 12 13  1  0
 13 14  2  0
 13 15  1  0
 15 16  1  0
 10 17  1  0
 17 18  2  0
 18 19  1  0
 19 20  2  0
 20 21  1  0
 20 22  1  0
 17 23  1  0
 22 23  2  0
 23 24  1  0
 24 25  2  0
 24 26  1  0
  7 27  1  0
  4 28  1  0
 27 28  1  0
M  CHG  2  24   1  26  -1
M  END
