piperidine-amides-27001-covalent
     RDKit          3D

 25 26  0  0  0  0  0  0  0  0999 V2000
    7.0450   -3.3430   19.3600 C   0  0  0  0  0  0  0  0  0  0  0  0
    6.3930   -4.2100   20.3440 C   0  0  0  0  0  0  0  0  0  0  0  0
    5.3420   -4.7860   19.9610 O   0  0  0  0  0  0  0  0  0  0  0  0
    6.9400   -4.4250   21.6120 N   0  0  0  0  0  0  0  0  0  0  0  0
    6.5270   -5.5590   22.3940 C   0  0  0  0  0  0  0  0  0  0  0  0
    5.6140   -5.0450   23.4740 C   0  0  0  0  0  0  0  0  0  0  0  0
    6.3020   -4.0250   24.3450 C   0  0  0  0  0  0  0  0  0  0  0  0
    5.3460   -3.4620   25.3500 C   0  0  0  0  0  0  0  0  0  0  0  0
    4.5060   -2.6470   24.9260 O   0  0  0  0  0  0  0  0  0  0  0  0
    5.3060   -3.7720   26.7420 N   0  0  0  0  0  0  0  0  0  0  0  0
    6.4490   -3.5550   27.5260 C   0  0  0  0  0  0  0  0  0  0  0  0
    6.6700   -4.8110   28.3610 C   0  0  0  0  0  0  0  0  0  0  0  0
    5.6780   -5.1370   29.1580 C   0  0  0  0  0  0  0  0  0  0  0  0
    5.2010   -6.4390   29.2280 C   0  0  0  0  0  0  0  0  0  0  0  0
    5.5410   -7.1420   30.3910 C   0  0  0  0  0  0  0  0  0  0  0  0
    6.4040   -8.2040   30.3160 O   0  0  0  0  0  0  0  0  0  0  0  0
    5.0040   -6.7990   31.5810 N   0  0  0  0  0  0  0  0  0  0  0  0
    3.9920   -5.9190   31.6320 C   0  0  0  0  0  0  0  0  0  0  0  0
    5.1460   -7.6850   32.6070 C   0  0  0  0  0  0  0  0  0  0  0  0
    3.7980   -8.3590   32.6880 C   0  0  0  0  0  0  0  0  0  0  0  0
    5.5420   -6.9830   33.7060 C   0  0  0  0  0  0  0  0  0  0  0  0
    4.5600   -4.3610   28.9980 C   0  0  0  0  0  0  0  0  0  0  0  0
    4.5980   -3.2550   27.9190 C   0  0  0  0  0  0  0  0  0  0  0  0
    6.9470   -2.9230   23.5690 C   0  0  0  0  0  0  0  0  0  0  0  0
    7.6300   -3.3580   22.2880 C   0  0  0  0  0  0  0  0  0  0  0  0
  1  2  1  0
  2  3  2  0
  2  4  1  0
  4  5  1  0
  5  6  1  0
  6  7  1  0
  7  8  1  0
  8  9  2  0
  8 10  1  0
 10 11  1  0
 11 12  1  0
 12 13  1  0
 13 14  1  0
 14 15  1  0
 15 16  2  0
 15 17  1  0
 17 18  1  0
 17 19  1  0
 19 20  1  0
 19 21  1  0
 13 22  1  0
 10 23  1  0
 22 23  1  0
  7 24  1  0
  4 25  1  0
 24 25  1  0
M  END
