piperidine-amides-34030-covalent
     RDKit          3D

 30 32  0  0  0  0  0  0  0  0999 V2000
    7.0590   -3.3360   19.3460 C   0  0  0  0  0  0  0  0  0  0  0  0
    6.2910   -4.1620   20.2940 C   0  0  0  0  0  0  0  0  0  0  0  0
    5.2660   -4.7660   19.9340 O   0  0  0  0  0  0  0  0  0  0  0  0
    6.7250   -4.3130   21.6060 N   0  0  0  0  0  0  0  0  0  0  0  0
    6.5300   -5.5840   22.2740 C   0  0  0  0  0  0  0  0  0  0  0  0
    6.0410   -5.3410   23.7230 C   0  0  0  0  0  0  0  0  0  0  0  0
    6.0320   -3.8490   23.9940 C   0  0  0  0  0  0  0  0  0  0  0  0
    5.6790   -3.5190   25.4020 C   0  0  0  0  0  0  0  0  0  0  0  0
    4.6080   -2.9070   25.5950 O   0  0  0  0  0  0  0  0  0  0  0  0
    6.5280   -3.8730   26.4910 N   0  0  0  0  0  0  0  0  0  0  0  0
    7.1330   -5.1190   26.4840 C   0  0  0  0  0  0  0  0  0  0  0  0
    6.8080   -5.3110   27.9190 C   0  0  0  0  0  0  0  0  0  0  0  0
    5.4690   -5.0360   28.1650 C   0  0  1  0  0  0  0  0  0  0  0  0
    4.9450   -5.2970   29.4460 N   0  0  0  0  0  0  0  0  0  0  0  0
    3.9040   -4.5560   30.0140 C   0  0  0  0  0  0  0  0  0  0  0  0
    3.7480   -5.1870   31.2040 C   0  0  0  0  0  0  0  0  0  0  0  0
    2.8650   -4.9300   32.2300 C   0  0  0  0  0  0  0  0  0  0  0  0
    2.1450   -5.9790   32.6490 N   0  0  0  0  0  0  0  0  0  0  0  0
    1.7760   -5.7250   33.9200 C   0  0  0  0  0  0  0  0  0  0  0  0
    1.5610   -6.6730   34.6760 O   0  0  0  0  0  0  0  0  0  0  0  0
    1.6180   -4.4770   34.4420 O   0  0  0  0  0  0  0  0  0  0  0  0
    2.3800   -4.2750   35.5710 C   0  0  0  0  0  0  0  0  0  0  0  0
    1.7660   -4.9130   36.7810 C   0  0  0  0  0  0  0  0  0  0  0  0
    1.9850   -3.3940   36.7520 C   0  0  0  0  0  0  0  0  0  0  0  0
    3.7490   -4.7740   35.5630 C   0  0  0  0  0  0  0  0  0  0  0  0
    4.5570   -6.2310   31.4690 N   0  0  0  0  0  0  0  0  0  0  0  0
    5.3130   -6.2680   30.3150 N   0  0  0  0  0  0  0  0  0  0  0  0
    6.0180   -3.7510   27.8640 C   0  0  0  0  0  0  0  0  0  0  0  0
    7.3680   -3.2820   23.6580 C   0  0  0  0  0  0  0  0  0  0  0  0
    7.5400   -3.2850   22.1810 C   0  0  0  0  0  0  0  0  0  0  0  0
  1  2  1  0
  2  3  2  0
  2  4  1  0
  4  5  1  0
  5  6  1  0
  6  7  1  0
  7  8  1  0
  8  9  2  0
  8 10  1  0
 10 11  1  0
 11 12  1  0
 12 13  1  0
 13 14  1  1
 14 15  1  0
 15 16  2  0
 16 17  1  0
 17 18  1  0
 18 19  1  0
 19 20  2  0
 19 21  1  0
 22 21  1  0
 22 23  1  0
 22 24  1  0
 22 25  1  0
 16 26  1  0
 14 27  1  0
 26 27  2  0
 10 28  1  0
 13 28  1  0
  7 29  1  0
  4 30  1  0
 29 30  1  0
M  END
