piperidine-amides-18938-covalent
     RDKit          3D

 21 21  0  0  0  0  0  0  0  0999 V2000
    7.1160   -3.2770   19.3910 C   0  0  0  0  0  0  0  0  0  0  0  0
    6.3580   -4.0490   20.3580 C   0  0  0  0  0  0  0  0  0  0  0  0
    5.3590   -4.7180   19.9420 O   0  0  0  0  0  0  0  0  0  0  0  0
    6.7080   -4.1030   21.7270 N   0  0  0  0  0  0  0  0  0  0  0  0
    6.5840   -5.4300   22.3780 C   0  0  0  0  0  0  0  0  0  0  0  0
    6.0070   -5.0570   23.8060 C   0  0  0  0  0  0  0  0  0  0  0  0
    5.9640   -3.5490   23.8980 C   0  0  0  0  0  0  0  0  0  0  0  0
    5.0580   -3.0400   25.1240 C   0  0  0  0  0  0  0  0  0  0  0  0
    3.9160   -3.4560   25.0170 O   0  0  0  0  0  0  0  0  0  0  0  0
    5.7720   -2.3250   25.8910 N   0  0  0  0  0  0  0  0  0  0  0  0
    6.4760   -1.2300   26.3050 C   0  0  0  0  0  0  0  0  0  0  0  0
    6.2980   -3.2450   26.7860 C   0  0  2  0  0  0  0  0  0  0  0  0
    5.6760   -4.5250   26.9900 C   0  0  0  0  0  0  0  0  0  0  0  0
    4.4580   -4.3420   27.6580 O   0  0  0  0  0  0  0  0  0  0  0  0
    6.5310   -2.7340   28.2320 C   0  0  0  0  0  0  0  0  0  0  0  0
    5.1320   -2.1310   28.5140 C   0  0  0  0  0  0  0  0  0  0  0  0
    5.7630   -1.0710   29.1900 C   0  0  0  0  0  0  0  0  0  0  0  0
    4.6070   -1.7980   29.9040 C   0  0  0  0  0  0  0  0  0  0  0  0
    4.0700   -1.8850   27.4890 C   0  0  0  0  0  0  0  0  0  0  0  0
    7.3040   -2.9480   23.6210 C   0  0  0  0  0  0  0  0  0  0  0  0
    7.5840   -3.1080   22.2870 C   0  0  0  0  0  0  0  0  0  0  0  0
  1  2  1  0
  2  3  2  0
  2  4  1  0
  4  5  1  0
  5  6  1  0
  6  7  1  0
  7  8  1  0
  8  9  2  0
  8 10  1  0
 10 11  1  0
 10 12  1  0
 12 13  1  1
 13 14  1  0
 12 15  1  0
 16 15  1  0
 16 17  1  0
 16 18  1  0
 16 19  1  0
  7 20  1  0
  4 21  1  0
 20 21  1  0
M  END
