piperidine-amides-8397-covalent
     RDKit          3D

 24 26  0  0  0  0  0  0  0  0999 V2000
    7.1040   -3.2680   19.1960 C   0  0  0  0  0  0  0  0  0  0  0  0
    6.3710   -4.0240   20.2130 C   0  0  0  0  0  0  0  0  0  0  0  0
    5.3050   -4.5690   19.8880 O   0  0  0  0  0  0  0  0  0  0  0  0
    6.8960   -4.1580   21.5170 N   0  0  0  0  0  0  0  0  0  0  0  0
    7.6970   -3.0830   22.0290 C   0  0  0  0  0  0  0  0  0  0  0  0
    7.5500   -2.9980   23.5080 C   0  0  0  0  0  0  0  0  0  0  0  0
    6.1160   -3.3480   23.8320 C   0  0  0  0  0  0  0  0  0  0  0  0
    5.8320   -3.0170   25.2630 C   0  0  0  0  0  0  0  0  0  0  0  0
    4.6460   -2.9280   25.5830 O   0  0  0  0  0  0  0  0  0  0  0  0
    6.9360   -2.8310   26.0990 N   0  0  0  0  0  0  0  0  0  0  0  0
    6.9030   -2.0360   27.2830 C   0  0  0  0  0  0  0  0  0  0  0  0
    7.5180   -2.6610   28.3610 C   0  0  0  0  0  0  0  0  0  0  0  0
    7.7290   -3.9610   28.1610 C   0  0  2  0  0  0  0  0  0  0  0  0
    8.3960   -3.9630   26.9880 O   0  0  0  0  0  0  0  0  0  0  0  0
    8.5570   -4.8100   26.0300 C   0  0  0  0  0  0  0  0  0  0  0  0
    7.6220   -5.9160   26.1460 C   0  0  0  0  0  0  0  0  0  0  0  0
    6.5120   -5.7540   27.2140 C   0  0  0  0  0  0  0  0  0  0  0  0
    5.3440   -6.6670   27.1570 C   0  0  0  0  0  0  0  0  0  0  0  0
    4.2660   -6.5400   28.1850 C   0  0  0  0  0  0  0  0  0  0  0  0
    4.5430   -5.4130   29.1980 C   0  0  0  0  0  0  0  0  0  0  0  0
    5.6660   -4.6220   29.1420 C   0  0  0  0  0  0  0  0  0  0  0  0
    6.6420   -4.7740   28.1790 C   0  0  0  0  0  0  0  0  0  0  0  0
    5.8010   -4.7870   23.5630 C   0  0  0  0  0  0  0  0  0  0  0  0
    6.5410   -5.2750   22.3490 C   0  0  0  0  0  0  0  0  0  0  0  0
  1  2  1  0
  2  3  2  0
  2  4  1  0
  4  5  1  0
  5  6  1  0
  6  7  1  0
  7  8  1  0
  8  9  2  0
  8 10  1  0
 10 11  1  0
 11 12  1  0
 13 12  1  6
 13 14  1  0
 14 15  1  0
 15 16  1  0
 16 17  1  0
 17 18  2  0
 18 19  1  0
 19 20  2  0
 20 21  1  0
 13 22  1  0
 17 22  1  0
 21 22  2  0
  7 23  1  0
  4 24  1  0
 23 24  1  0
M  END
