piperidine-amides-13152-covalent
     RDKit          3D

 20 20  0  0  0  0  0  0  0  0999 V2000
    7.1330   -3.2750   19.2350 C   0  0  0  0  0  0  0  0  0  0  0  0
    6.4040   -4.0570   20.2590 C   0  0  0  0  0  0  0  0  0  0  0  0
    5.3250   -4.5720   19.9000 O   0  0  0  0  0  0  0  0  0  0  0  0
    6.9400   -4.2440   21.5430 N   0  0  0  0  0  0  0  0  0  0  0  0
    7.7020   -3.2020   22.1500 C   0  0  0  0  0  0  0  0  0  0  0  0
    7.2160   -2.8930   23.4810 C   0  0  0  0  0  0  0  0  0  0  0  0
    5.9780   -3.6270   23.7930 C   0  0  0  0  0  0  0  0  0  0  0  0
    5.5330   -3.3000   25.1600 C   0  0  0  0  0  0  0  0  0  0  0  0
    4.3180   -3.1500   25.3670 O   0  0  0  0  0  0  0  0  0  0  0  0
    6.4530   -3.1630   26.1960 N   0  0  0  0  0  0  0  0  0  0  0  0
    6.1470   -3.6070   27.5620 C   0  0  0  0  0  0  0  0  0  0  0  0
    6.6950   -2.6340   28.5280 C   0  0  0  0  0  0  0  0  0  0  0  0
    5.8330   -2.1270   29.5410 N   0  0  0  0  0  0  0  0  0  0  0  0
    5.7300   -0.6950   29.7110 C   0  0  0  0  0  0  0  0  0  0  0  0
    4.8590    0.0250   29.1170 O   0  0  0  0  0  0  0  0  0  0  0  0
    6.7120   -0.3130   30.5990 C   0  0  0  0  0  0  0  0  0  0  0  0
    6.3400   -0.0360   31.8780 O   0  0  0  0  0  0  0  0  0  0  0  0
    7.2830    0.2940   32.8950 C   0  0  0  0  0  0  0  0  0  0  0  0
    6.0240   -5.0930   23.5030 C   0  0  0  0  0  0  0  0  0  0  0  0
    6.6110   -5.4080   22.3010 C   0  0  0  0  0  0  0  0  0  0  0  0
  1  2  1  0
  2  3  2  0
  2  4  1  0
  4  5  1  0
  5  6  1  0
  6  7  1  0
  7  8  1  0
  8  9  2  0
  8 10  1  0
 10 11  1  0
 11 12  1  0
 12 13  1  0
 13 14  1  0
 14 15  2  0
 14 16  1  0
 16 17  1  0
 17 18  1  0
  7 19  1  0
  4 20  1  0
 19 20  1  0
M  END
