piperidine-amides-32993-covalent
     RDKit          3D

 29 31  0  0  0  0  0  0  0  0999 V2000
    7.0390   -3.3490   19.3800 C   0  0  0  0  0  0  0  0  0  0  0  0
    6.3620   -4.2370   20.3680 C   0  0  0  0  0  0  0  0  0  0  0  0
    5.3670   -4.8770   19.9910 O   0  0  0  0  0  0  0  0  0  0  0  0
    6.8770   -4.3800   21.6840 N   0  0  0  0  0  0  0  0  0  0  0  0
    6.6780   -5.6220   22.4110 C   0  0  0  0  0  0  0  0  0  0  0  0
    6.2800   -5.2980   23.8660 C   0  0  0  0  0  0  0  0  0  0  0  0
    6.1000   -3.8260   23.9780 C   0  0  0  0  0  0  0  0  0  0  0  0
    5.6640   -3.3060   25.3070 C   0  0  0  0  0  0  0  0  0  0  0  0
    4.8160   -2.4140   25.2650 O   0  0  0  0  0  0  0  0  0  0  0  0
    6.1480   -3.7980   26.5300 N   0  0  0  0  0  0  0  0  0  0  0  0
    5.6890   -4.9560   27.2140 C   0  0  0  0  0  0  0  0  0  0  0  0
    5.8070   -5.1980   28.5630 C   0  0  0  0  0  0  0  0  0  0  0  0
    5.0280   -4.1620   29.1560 N   0  0  0  0  0  0  0  0  0  0  0  0
    3.6340   -4.1450   29.1900 C   0  0  0  0  0  0  0  0  0  0  0  0
    3.1610   -5.1240   30.0350 C   0  0  0  0  0  0  0  0  0  0  0  0
    2.2800   -4.9250   31.1950 C   0  0  0  0  0  0  0  0  0  0  0  0
    1.8080   -6.0970   32.0700 C   0  0  0  0  0  0  0  0  0  0  0  0
    0.9780   -5.8420   33.1520 O   0  0  0  0  0  0  0  0  0  0  0  0
    1.3700   -6.1580   34.4690 C   0  0  0  0  0  0  0  0  0  0  0  0
    2.1940   -7.4450   31.8090 C   0  0  0  0  0  0  0  0  0  0  0  0
    1.7660   -8.4910   32.5930 O   0  0  0  0  0  0  0  0  0  0  0  0
    1.0760   -9.6090   32.1110 C   0  0  0  0  0  0  0  0  0  0  0  0
    3.0440   -7.6040   30.6880 C   0  0  0  0  0  0  0  0  0  0  0  0
    3.4630   -6.5630   29.9130 C   0  0  0  0  0  0  0  0  0  0  0  0
    4.1910   -7.6950   29.1510 C   0  0  0  0  0  0  0  0  0  0  0  0
    5.4650   -2.8930   28.6770 C   0  0  0  0  0  0  0  0  0  0  0  0
    6.6170   -3.2190   27.7650 C   0  0  0  0  0  0  0  0  0  0  0  0
    7.3440   -3.0660   23.5840 C   0  0  0  0  0  0  0  0  0  0  0  0
    7.6090   -3.2830   22.2440 C   0  0  0  0  0  0  0  0  0  0  0  0
  1  2  1  0
  2  3  2  0
  2  4  1  0
  4  5  1  0
  5  6  1  0
  6  7  1  0
  7  8  1  0
  8  9  2  0
  8 10  1  0
 10 11  1  0
 11 12  1  0
 12 13  1  0
 13 14  1  0
 14 15  1  0
 15 16  2  0
 16 17  1  0
 17 18  1  0
 18 19  1  0
 17 20  2  0
 20 21  1  0
 21 22  1  0
 20 23  1  0
 15 24  1  0
 23 24  2  0
 24 25  1  0
 13 26  1  0
 10 27  1  0
 26 27  1  0
  7 28  1  0
  4 29  1  0
 28 29  1  0
M  END
