piperidine-amides-11884-covalent
     RDKit          3D

 27 29  0  0  0  0  0  0  0  0999 V2000
    7.0600   -3.3230   19.3230 C   0  0  0  0  0  0  0  0  0  0  0  0
    6.3510   -4.1520   20.2950 C   0  0  0  0  0  0  0  0  0  0  0  0
    5.3440   -4.7730   19.9580 O   0  0  0  0  0  0  0  0  0  0  0  0
    6.8570   -4.2830   21.6320 N   0  0  0  0  0  0  0  0  0  0  0  0
    7.7300   -3.2590   22.1660 C   0  0  0  0  0  0  0  0  0  0  0  0
    7.5390   -3.1090   23.6410 C   0  0  0  0  0  0  0  0  0  0  0  0
    6.1470   -3.6110   23.9630 C   0  0  0  0  0  0  0  0  0  0  0  0
    5.8310   -3.3070   25.3770 C   0  0  0  0  0  0  0  0  0  0  0  0
    4.6890   -3.4480   25.8620 O   0  0  0  0  0  0  0  0  0  0  0  0
    6.8900   -2.8260   26.1820 N   0  0  0  0  0  0  0  0  0  0  0  0
    6.7050   -1.6650   27.0250 C   0  0  0  0  0  0  0  0  0  0  0  0
    7.2960   -1.6220   28.4020 C   0  0  0  0  0  0  0  0  0  0  0  0
    7.1420   -0.5330   29.2340 C   0  0  0  0  0  0  0  0  0  0  0  0
    6.4150    0.5920   28.8050 C   0  0  0  0  0  0  0  0  0  0  0  0
    5.8360    0.6430   27.5500 C   0  0  0  0  0  0  0  0  0  0  0  0
    5.9170   -0.4340   26.5730 C   0  0  0  0  0  0  0  0  0  0  0  0
    5.3500   -0.4260   25.3100 C   0  0  0  0  0  0  0  0  0  0  0  0
    4.9680   -1.4360   24.5770 O   0  0  0  0  0  0  0  0  0  0  0  0
    5.1660    0.8190   24.8110 N   0  0  0  0  0  0  0  0  0  0  0  0
    3.9790    1.4450   25.3100 C   0  0  0  0  0  0  0  0  0  0  0  0
    3.9640    2.7740   24.9140 C   0  0  0  0  0  0  0  0  0  0  0  0
    4.2220    2.9680   23.4880 C   0  0  0  0  0  0  0  0  0  0  0  0
    5.3330    2.3360   22.9530 C   0  0  1  0  0  0  0  0  0  0  0  0
    6.3890    3.1560   23.2340 O   0  0  0  0  0  0  0  0  0  0  0  0
    5.5760    1.0480   23.4500 C   0  0  0  0  0  0  0  0  0  0  0  0
    6.0580   -5.1050   23.7400 C   0  0  0  0  0  0  0  0  0  0  0  0
    6.6670   -5.4990   22.3870 C   0  0  0  0  0  0  0  0  0  0  0  0
  1  2  1  0
  2  3  2  0
  2  4  1  0
  4  5  1  0
  5  6  1  0
  6  7  1  0
  7  8  1  0
  8  9  2  0
  8 10  1  0
 10 11  1  0
 11 12  2  0
 12 13  1  0
 13 14  2  0
 14 15  1  0
 11 16  1  0
 15 16  2  0
 16 17  1  0
 17 18  2  0
 17 19  1  0
 19 20  1  0
 20 21  1  0
 21 22  1  0
 22 23  1  0
 23 24  1  1
 19 25  1  0
 23 25  1  0
  7 26  1  0
  4 27  1  0
 26 27  1  0
M  END
