piperidine-amides-29396-covalent
     RDKit          3D

 27 30  0  0  0  0  0  0  0  0999 V2000
    7.0610   -3.3470   19.3450 C   0  0  0  0  0  0  0  0  0  0  0  0
    6.3970   -4.2050   20.3220 C   0  0  0  0  0  0  0  0  0  0  0  0
    5.3600   -4.7930   19.9700 O   0  0  0  0  0  0  0  0  0  0  0  0
    6.9620   -4.4040   21.6110 N   0  0  0  0  0  0  0  0  0  0  0  0
    7.6650   -3.3290   22.2510 C   0  0  0  0  0  0  0  0  0  0  0  0
    6.8420   -2.8120   23.3900 C   0  0  0  0  0  0  0  0  0  0  0  0
    6.4900   -4.0080   24.2510 C   0  0  0  0  0  0  0  0  0  0  0  0
    5.5760   -3.5820   25.3630 C   0  0  0  0  0  0  0  0  0  0  0  0
    4.8040   -2.6610   25.1170 O   0  0  0  0  0  0  0  0  0  0  0  0
    5.6730   -4.2600   26.5740 N   0  0  0  0  0  0  0  0  0  0  0  0
    6.9350   -4.7020   26.8980 C   0  0  0  0  0  0  0  0  0  0  0  0
    7.0490   -5.4930   28.0070 C   0  0  0  0  0  0  0  0  0  0  0  0
    6.3930   -4.9230   29.0390 C   0  0  0  0  0  0  0  0  0  0  0  0
    5.0590   -4.5780   28.8880 C   0  0  0  0  0  0  0  0  0  0  0  0
    5.0080   -3.5400   27.7790 C   0  0  2  0  0  0  0  0  0  0  0  0
    3.6010   -3.2010   27.2280 C   0  0  0  0  0  0  0  0  0  0  0  0
    2.4810   -3.3920   28.1860 C   0  0  0  0  0  0  0  0  0  0  0  0
    2.7620   -2.8570   29.5540 C   0  0  0  0  0  0  0  0  0  0  0  0
    1.5890   -3.0690   30.5280 C   0  0  0  0  0  0  0  0  0  0  0  0
    0.4200   -3.6840   30.1580 C   0  0  0  0  0  0  0  0  0  0  0  0
    0.1900   -4.1690   28.8840 C   0  0  0  0  0  0  0  0  0  0  0  0
    1.2860   -4.0120   27.8400 C   0  0  0  0  0  0  0  0  0  0  0  0
    1.0400   -4.5400   26.4500 C   0  0  0  0  0  0  0  0  0  0  0  0
    0.3000   -3.9560   25.4090 C   0  0  0  0  0  0  0  0  0  0  0  0
   -0.7420   -4.4280   26.2420 C   0  0  0  0  0  0  0  0  0  0  0  0
    5.8440   -5.1570   23.5410 C   0  0  0  0  0  0  0  0  0  0  0  0
    6.6400   -5.5970   22.3360 C   0  0  0  0  0  0  0  0  0  0  0  0
  1  2  1  0
  2  3  2  0
  2  4  1  0
  4  5  1  0
  5  6  1  0
  6  7  1  0
  7  8  1  0
  8  9  2  0
  8 10  1  0
 10 11  1  0
 11 12  1  0
 12 13  1  0
 13 14  1  0
 10 15  1  0
 14 15  1  0
 15 16  1  6
 16 17  1  0
 17 18  2  0
 18 19  1  0
 19 20  2  0
 20 21  1  0
 17 22  1  0
 21 22  2  0
 22 23  1  0
 23 24  1  0
 23 25  1  0
 24 25  1  0
  7 26  1  0
  4 27  1  0
 26 27  1  0
M  END
