piperidine-amides-14664-covalent
     RDKit          3D

 23 24  0  0  0  0  0  0  0  0999 V2000
    7.1180   -3.2850   19.2020 C   0  0  0  0  0  0  0  0  0  0  0  0
    6.3800   -4.0760   20.1880 C   0  0  0  0  0  0  0  0  0  0  0  0
    5.2690   -4.5260   19.8710 O   0  0  0  0  0  0  0  0  0  0  0  0
    6.9580   -4.3620   21.4450 N   0  0  0  0  0  0  0  0  0  0  0  0
    7.6930   -3.3130   22.0930 C   0  0  0  0  0  0  0  0  0  0  0  0
    6.8170   -2.7140   23.1290 C   0  0  0  0  0  0  0  0  0  0  0  0
    6.4490   -3.8720   24.0190 C   0  0  0  0  0  0  0  0  0  0  0  0
    5.6040   -3.3610   25.1270 C   0  0  0  0  0  0  0  0  0  0  0  0
    4.3910   -3.5720   25.0910 O   0  0  0  0  0  0  0  0  0  0  0  0
    6.2900   -2.6740   26.1010 N   0  0  0  0  0  0  0  0  0  0  0  0
    7.6550   -2.3060   25.8790 C   0  0  0  0  0  0  0  0  0  0  0  0
    8.0230   -1.1550   26.5510 C   0  0  0  0  0  0  0  0  0  0  0  0
    6.9150   -1.0220   27.4990 N   0  0  0  0  0  0  0  0  0  0  0  0
    7.1540   -2.2170   28.7010 S   0  0  0  0  0  0  0  0  0  0  0  0
    5.8930   -2.4860   29.4910 O   0  0  0  0  0  0  0  0  0  0  0  0
    8.1870   -1.6610   29.6210 O   0  0  0  0  0  0  0  0  0  0  0  0
    7.7550   -3.6690   27.8840 C   0  0  0  0  0  0  0  0  0  0  0  0
    8.1190   -3.6610   26.5320 C   0  0  0  0  0  0  0  0  0  0  0  0
    8.6110   -4.9710   26.0830 C   0  0  0  0  0  0  0  0  0  0  0  0
    8.6520   -6.0930   27.0800 C   0  0  0  0  0  0  0  0  0  0  0  0
    8.0370   -5.2970   28.4510 S   0  0  0  0  0  0  0  0  0  0  0  0
    5.6930   -4.9580   23.3450 C   0  0  0  0  0  0  0  0  0  0  0  0
    6.3990   -5.4780   22.1290 C   0  0  0  0  0  0  0  0  0  0  0  0
  1  2  1  0
  2  3  2  0
  2  4  1  0
  4  5  1  0
  5  6  1  0
  6  7  1  0
  7  8  1  0
  8  9  2  0
  8 10  1  0
 10 11  1  0
 11 12  1  0
 12 13  1  0
 14 13  1  0
 14 15  2  0
 14 16  2  0
 14 17  1  0
 17 18  2  0
 18 19  1  0
 19 20  2  0
 17 21  1  0
 20 21  1  0
  7 22  1  0
  4 23  1  0
 22 23  1  0
M  END
