piperidine-amides-17246-covalent
     RDKit          3D

 20 21  0  0  0  0  0  0  0  0999 V2000
    7.0500   -3.4090   19.4770 C   0  0  0  0  0  0  0  0  0  0  0  0
    6.3870   -4.2840   20.4560 C   0  0  0  0  0  0  0  0  0  0  0  0
    5.4260   -4.9710   20.0190 O   0  0  0  0  0  0  0  0  0  0  0  0
    6.8440   -4.3800   21.8060 N   0  0  0  0  0  0  0  0  0  0  0  0
    6.5160   -5.5310   22.5810 C   0  0  0  0  0  0  0  0  0  0  0  0
    6.0480   -5.2090   23.9330 C   0  0  0  0  0  0  0  0  0  0  0  0
    5.9790   -3.7530   24.1720 C   0  0  0  0  0  0  0  0  0  0  0  0
    5.2510   -3.2900   25.4430 C   0  0  0  0  0  0  0  0  0  0  0  0
    4.4630   -2.3470   25.2870 O   0  0  0  0  0  0  0  0  0  0  0  0
    5.3410   -3.7940   26.7840 N   0  0  0  0  0  0  0  0  0  0  0  0
    6.4700   -3.7130   27.5480 C   0  0  0  0  0  0  0  0  0  0  0  0
    6.8610   -4.8980   28.3140 C   0  0  0  0  0  0  0  0  0  0  0  0
    5.5770   -5.1940   28.9830 C   0  0  0  0  0  0  0  0  0  0  0  0
    5.3180   -6.0640   30.0270 C   0  0  0  0  0  0  0  0  0  0  0  0
    5.0800   -6.5970   28.5650 C   0  0  0  0  0  0  0  0  0  0  0  0
    3.7160   -6.6550   28.2880 O   0  0  0  0  0  0  0  0  0  0  0  0
    4.4590   -4.2630   29.0130 C   0  0  0  0  0  0  0  0  0  0  0  0
    4.1660   -3.6300   27.6140 C   0  0  0  0  0  0  0  0  0  0  0  0
    7.2810   -3.0490   23.8650 C   0  0  0  0  0  0  0  0  0  0  0  0
    7.6460   -3.3120   22.3990 C   0  0  0  0  0  0  0  0  0  0  0  0
  1  2  1  0
  2  3  2  0
  2  4  1  0
  4  5  1  0
  5  6  1  0
  6  7  1  0
  7  8  1  0
  8  9  2  0
  8 10  1  0
 10 11  1  0
 11 12  1  0
 12 13  1  0
 13 14  1  0
 13 15  1  0
 15 16  1  0
 13 17  1  0
 10 18  1  0
 17 18  1  0
  7 19  1  0
  4 20  1  0
 19 20  1  0
M  END
