piperidine-amides-25505-covalent
     RDKit          3D

 23 25  0  0  0  0  0  0  0  0999 V2000
    7.1200   -3.2430   19.2070 C   0  0  0  0  0  0  0  0  0  0  0  0
    6.3460   -4.0240   20.2070 C   0  0  0  0  0  0  0  0  0  0  0  0
    5.2640   -4.4790   19.8510 O   0  0  0  0  0  0  0  0  0  0  0  0
    6.8710   -4.2700   21.4740 N   0  0  0  0  0  0  0  0  0  0  0  0
    6.4600   -5.4330   22.2040 C   0  0  0  0  0  0  0  0  0  0  0  0
    5.6340   -4.9780   23.3660 C   0  0  0  0  0  0  0  0  0  0  0  0
    6.4700   -4.0190   24.2100 C   0  0  0  0  0  0  0  0  0  0  0  0
    5.6110   -3.5590   25.3220 C   0  0  0  0  0  0  0  0  0  0  0  0
    5.3110   -2.3640   25.4110 O   0  0  0  0  0  0  0  0  0  0  0  0
    5.1030   -4.4630   26.2780 N   0  0  0  0  0  0  0  0  0  0  0  0
    3.7210   -4.3170   26.6360 C   0  0  0  0  0  0  0  0  0  0  0  0
    4.3300   -4.4540   27.9620 C   0  0  0  0  0  0  0  0  0  0  0  0
    3.6000   -5.5530   28.6230 N   0  0  0  0  0  0  0  0  0  0  0  0
    3.2100   -5.0480   29.9430 C   0  0  0  0  0  0  0  0  0  0  0  0
    2.1410   -5.8270   30.2420 C   0  0  0  0  0  0  0  0  0  0  0  0
    2.9440   -7.2390   30.7870 S   0  0  0  0  0  0  0  0  0  0  0  0
    1.9390   -8.2890   31.1310 O   0  0  0  0  0  0  0  0  0  0  0  0
    3.8550   -6.9110   31.9370 O   0  0  0  0  0  0  0  0  0  0  0  0
    3.7590   -7.6850   29.3580 C   0  0  0  0  0  0  0  0  0  0  0  0
    4.6540   -6.5070   29.0310 C   0  0  0  0  0  0  0  0  0  0  0  0
    5.7530   -4.6080   27.5870 C   0  0  0  0  0  0  0  0  0  0  0  0
    7.0150   -2.8590   23.4770 C   0  0  0  0  0  0  0  0  0  0  0  0
    7.5580   -3.1910   22.1330 C   0  0  0  0  0  0  0  0  0  0  0  0
  1  2  1  0
  2  3  2  0
  2  4  1  0
  4  5  1  0
  5  6  1  0
  6  7  1  0
  7  8  1  0
  8  9  2  0
  8 10  1  0
 10 11  1  0
 11 12  1  0
 12 13  1  0
 13 14  1  0
 14 15  1  0
 16 15  1  0
 16 17  2  0
 16 18  2  0
 16 19  1  0
 13 20  1  0
 19 20  1  0
 10 21  1  0
 12 21  1  0
  7 22  1  0
  4 23  1  0
 22 23  1  0
M  END
