piperidine-amides-27260-covalent
     RDKit          3D

 26 29  0  0  0  0  0  0  0  0999 V2000
    7.0760   -3.3540   19.3410 C   0  0  0  0  0  0  0  0  0  0  0  0
    6.4400   -4.2220   20.3380 C   0  0  0  0  0  0  0  0  0  0  0  0
    5.3830   -4.8050   19.9740 O   0  0  0  0  0  0  0  0  0  0  0  0
    7.0240   -4.4260   21.5990 N   0  0  0  0  0  0  0  0  0  0  0  0
    6.6700   -5.5630   22.3990 C   0  0  0  0  0  0  0  0  0  0  0  0
    5.8220   -5.0670   23.5410 C   0  0  0  0  0  0  0  0  0  0  0  0
    6.3850   -3.8520   24.2490 C   0  0  0  0  0  0  0  0  0  0  0  0
    5.3260   -3.2830   25.1160 C   0  0  0  0  0  0  0  0  0  0  0  0
    4.3550   -2.7520   24.5510 O   0  0  0  0  0  0  0  0  0  0  0  0
    5.3150   -3.2900   26.5160 N   0  0  0  0  0  0  0  0  0  0  0  0
    4.2140   -3.8060   27.2730 C   0  0  0  0  0  0  0  0  0  0  0  0
    4.7090   -4.4650   28.5440 C   0  0  0  0  0  0  0  0  0  0  0  0
    5.7470   -3.9620   29.2390 C   0  0  0  0  0  0  0  0  0  0  0  0
    5.6780   -2.6900   29.7710 C   0  0  0  0  0  0  0  0  0  0  0  0
    6.6560   -1.7080   29.6630 C   0  0  0  0  0  0  0  0  0  0  0  0
    6.2360   -0.5980   30.3180 C   0  0  0  0  0  0  0  0  0  0  0  0
    6.8290    0.6480   30.5180 C   0  0  0  0  0  0  0  0  0  0  0  0
    6.2630    1.8390   31.2810 C   0  0  0  0  0  0  0  0  0  0  0  0
    4.8890    1.5370   31.8550 C   0  0  0  0  0  0  0  0  0  0  0  0
    4.2190    0.2150   31.6640 C   0  0  0  0  0  0  0  0  0  0  0  0
    4.8760   -0.8980   30.8870 C   0  0  0  0  0  0  0  0  0  0  0  0
    4.6090   -2.2240   30.4940 N   0  0  0  0  0  0  0  0  0  0  0  0
    6.6510   -4.1230   28.2970 C   0  0  0  0  0  0  0  0  0  0  0  0
    6.5140   -3.0760   27.2040 C   0  0  0  0  0  0  0  0  0  0  0  0
    6.8370   -2.7800   23.3010 C   0  0  0  0  0  0  0  0  0  0  0  0
    7.7650   -3.3600   22.2390 C   0  0  0  0  0  0  0  0  0  0  0  0
  1  2  1  0
  2  3  2  0
  2  4  1  0
  4  5  1  0
  5  6  1  0
  6  7  1  0
  7  8  1  0
  8  9  2  0
  8 10  1  0
 10 11  1  0
 11 12  1  0
 12 13  1  0
 13 14  1  0
 14 15  2  0
 15 16  1  0
 16 17  2  0
 17 18  1  0
 18 19  2  0
 19 20  1  0
 16 21  1  0
 20 21  2  0
 14 22  1  0
 21 22  1  0
 13 23  1  0
 10 24  1  0
 23 24  1  0
  7 25  1  0
  4 26  1  0
 25 26  1  0
M  END
