piperidine-amides-11086-covalent
     RDKit          3D

 20 21  0  0  0  0  0  0  0  0999 V2000
    7.1020   -3.2740   19.2050 C   0  0  0  0  0  0  0  0  0  0  0  0
    6.3390   -3.9980   20.2300 C   0  0  0  0  0  0  0  0  0  0  0  0
    5.3060   -4.6010   19.9040 O   0  0  0  0  0  0  0  0  0  0  0  0
    6.7850   -4.0560   21.5610 N   0  0  0  0  0  0  0  0  0  0  0  0
    7.7360   -3.0990   22.0720 C   0  0  0  0  0  0  0  0  0  0  0  0
    7.3770   -2.8710   23.5070 C   0  0  0  0  0  0  0  0  0  0  0  0
    6.0670   -3.5040   23.8670 C   0  0  0  0  0  0  0  0  0  0  0  0
    5.7130   -3.2360   25.2760 C   0  0  0  0  0  0  0  0  0  0  0  0
    4.5100   -3.0350   25.6200 O   0  0  0  0  0  0  0  0  0  0  0  0
    6.7100   -3.1820   26.2650 N   0  0  0  0  0  0  0  0  0  0  0  0
    6.4010   -2.9590   27.6870 C   0  0  0  0  0  0  0  0  0  0  0  0
    6.5920   -4.2120   28.4480 C   0  0  0  0  0  0  0  0  0  0  0  0
    5.7490   -5.3660   28.1440 C   0  0  0  0  0  0  0  0  0  0  0  0
    5.6210   -6.5060   29.0880 C   0  0  0  0  0  0  0  0  0  0  0  0
    4.6830   -7.4400   28.4200 C   0  0  0  0  0  0  0  0  0  0  0  0
    4.3540   -6.7680   27.1570 N   0  0  0  0  0  0  0  0  0  0  0  0
    3.4330   -7.4990   26.3090 C   0  0  0  0  0  0  0  0  0  0  0  0
    4.9890   -5.5980   27.0570 N   0  0  0  0  0  0  0  0  0  0  0  0
    6.1110   -4.9940   23.5830 C   0  0  0  0  0  0  0  0  0  0  0  0
    6.5830   -5.2880   22.2940 C   0  0  0  0  0  0  0  0  0  0  0  0
  1  2  1  0
  2  3  2  0
  2  4  1  0
  4  5  1  0
  5  6  1  0
  6  7  1  0
  7  8  1  0
  8  9  2  0
  8 10  1  0
 10 11  1  0
 11 12  1  0
 12 13  1  0
 13 14  1  0
 14 15  2  0
 15 16  1  0
 16 17  1  0
 13 18  2  0
 16 18  1  0
  7 19  1  0
  4 20  1  0
 19 20  1  0
M  END
