piperidine-amides-4169-covalent
     RDKit          3D

 27 29  0  0  0  0  0  0  0  0999 V2000
    7.0850   -3.3380   19.3090 C   0  0  0  0  0  0  0  0  0  0  0  0
    6.3390   -4.1420   20.2920 C   0  0  0  0  0  0  0  0  0  0  0  0
    5.2650   -4.6560   19.9110 O   0  0  0  0  0  0  0  0  0  0  0  0
    6.8420   -4.3680   21.5930 N   0  0  0  0  0  0  0  0  0  0  0  0
    7.5490   -3.3110   22.2070 C   0  0  0  0  0  0  0  0  0  0  0  0
    7.2500   -3.2180   23.6140 C   0  0  0  0  0  0  0  0  0  0  0  0
    5.9460   -3.7590   23.9930 C   0  0  0  0  0  0  0  0  0  0  0  0
    5.5890   -3.3730   25.3930 C   0  0  0  0  0  0  0  0  0  0  0  0
    4.3980   -3.4510   25.7500 O   0  0  0  0  0  0  0  0  0  0  0  0
    6.5440   -2.9050   26.3190 N   0  0  0  0  0  0  0  0  0  0  0  0
    6.5670   -1.6420   26.9550 C   0  0  0  0  0  0  0  0  0  0  0  0
    6.2090   -0.3740   26.3460 C   0  0  0  0  0  0  0  0  0  0  0  0
    6.2620    0.9430   27.1320 C   0  0  0  0  0  0  0  0  0  0  0  0
    6.6470    1.0320   28.4510 C   0  0  0  0  0  0  0  0  0  0  0  0
    7.0210   -0.3090   29.0830 C   0  0  0  0  0  0  0  0  0  0  0  0
    7.3950   -0.1800   30.4210 O   0  0  0  0  0  0  0  0  0  0  0  0
    6.9400    1.0600   30.8880 C   0  0  0  0  0  0  0  0  0  0  0  0
    6.6970    1.1090   32.4000 C   0  0  0  0  0  0  0  0  0  0  0  0
    5.6930    2.0380   33.0150 C   0  0  0  0  0  0  0  0  0  0  0  0
    5.5500    1.9860   34.5050 C   0  0  0  0  0  0  0  0  0  0  0  0
    6.3890    1.0330   35.3500 C   0  0  0  0  0  0  0  0  0  0  0  0
    7.3470    0.1700   34.5830 C   0  0  0  0  0  0  0  0  0  0  0  0
    8.1520   -0.7250   35.2800 C   0  0  0  0  0  0  0  0  0  0  0  0
    7.4450    0.2560   33.1900 C   0  0  0  0  0  0  0  0  0  0  0  0
    6.9770   -1.4930   28.3870 C   0  0  0  0  0  0  0  0  0  0  0  0
    5.9290   -5.2370   23.7340 C   0  0  0  0  0  0  0  0  0  0  0  0
    6.4200   -5.5370   22.3150 C   0  0  0  0  0  0  0  0  0  0  0  0
  1  2  1  0
  2  3  2  0
  2  4  1  0
  4  5  1  0
  5  6  1  0
  6  7  1  0
  7  8  1  0
  8  9  2  0
  8 10  1  0
 10 11  1  0
 11 12  2  0
 12 13  1  0
 13 14  2  0
 14 15  1  0
 15 16  1  0
 16 17  1  0
 17 18  1  0
 18 19  2  0
 19 20  1  0
 20 21  2  0
 21 22  1  0
 22 23  1  0
 18 24  1  0
 22 24  2  0
 11 25  1  0
 15 25  2  0
  7 26  1  0
  4 27  1  0
 26 27  1  0
M  END
