piperidine-amides-1456-covalent
     RDKit          3D

 21 21  0  0  0  0  0  0  0  0999 V2000
    7.0870   -3.2750   19.3240 C   0  0  0  0  0  0  0  0  0  0  0  0
    6.3480   -4.1050   20.3220 C   0  0  0  0  0  0  0  0  0  0  0  0
    5.3280   -4.7080   19.9420 O   0  0  0  0  0  0  0  0  0  0  0  0
    6.8240   -4.2400   21.6520 N   0  0  0  0  0  0  0  0  0  0  0  0
    6.6330   -5.5030   22.3310 C   0  0  0  0  0  0  0  0  0  0  0  0
    6.3390   -5.2360   23.8130 C   0  0  0  0  0  0  0  0  0  0  0  0
    6.1520   -3.7700   23.9970 C   0  0  0  0  0  0  0  0  0  0  0  0
    5.5680   -3.3790   25.3150 C   0  0  0  0  0  0  0  0  0  0  0  0
    4.3500   -3.1790   25.2850 O   0  0  0  0  0  0  0  0  0  0  0  0
    6.3010   -3.2310   26.5120 N   0  0  0  0  0  0  0  0  0  0  0  0
    6.6050   -1.9330   27.0180 C   0  0  0  0  0  0  0  0  0  0  0  0
    5.6340   -1.0420   27.4110 C   0  0  0  0  0  0  0  0  0  0  0  0
    5.8210   -0.8970   28.8510 O   0  0  0  0  0  0  0  0  0  0  0  0
    4.7600   -1.3490   29.6210 C   0  0  0  0  0  0  0  0  0  0  0  0
    4.2600   -0.5000   30.5840 C   0  0  0  0  0  0  0  0  0  0  0  0
    5.0640    0.3200   31.2980 N   0  0  0  0  0  0  0  0  0  0  0  0
    6.0830   -4.2330   27.5430 C   0  0  0  0  0  0  0  0  0  0  0  0
    6.0380   -5.6910   27.0700 C   0  0  0  0  0  0  0  0  0  0  0  0
    6.8090   -4.0040   28.6660 C   0  0  0  0  0  0  0  0  0  0  0  0
    7.4580   -3.0550   23.6660 C   0  0  0  0  0  0  0  0  0  0  0  0
    7.6180   -3.1450   22.1920 C   0  0  0  0  0  0  0  0  0  0  0  0
  1  2  1  0
  2  3  2  0
  2  4  1  0
  4  5  1  0
  5  6  1  0
  6  7  1  0
  7  8  1  0
  8  9  2  0
  8 10  1  0
 10 11  1  0
 11 12  1  0
 12 13  1  0
 13 14  1  0
 14 15  1  0
 15 16  1  0
 10 17  1  0
 17 18  1  0
 17 19  1  0
  7 20  1  0
  4 21  1  0
 20 21  1  0
M  END
