piperidine-amides-6439-covalent
     RDKit          3D

 20 20  0  0  0  0  0  0  0  0999 V2000
    7.1530   -3.2670   19.2010 C   0  0  0  0  0  0  0  0  0  0  0  0
    6.4130   -4.0580   20.1930 C   0  0  0  0  0  0  0  0  0  0  0  0
    5.3180   -4.5860   19.9000 O   0  0  0  0  0  0  0  0  0  0  0  0
    6.9680   -4.2780   21.4600 N   0  0  0  0  0  0  0  0  0  0  0  0
    7.7450   -3.2400   22.0920 C   0  0  0  0  0  0  0  0  0  0  0  0
    6.8300   -2.6190   23.1350 C   0  0  0  0  0  0  0  0  0  0  0  0
    6.6050   -3.7010   24.1540 C   0  0  0  0  0  0  0  0  0  0  0  0
    5.8070   -3.1780   25.2650 C   0  0  0  0  0  0  0  0  0  0  0  0
    4.8260   -2.4470   25.0150 O   0  0  0  0  0  0  0  0  0  0  0  0
    6.1670   -3.5260   26.5690 N   0  0  0  0  0  0  0  0  0  0  0  0
    5.7670   -4.8120   27.0440 C   0  0  0  0  0  0  0  0  0  0  0  0
    6.0670   -4.8510   28.5100 C   0  0  0  0  0  0  0  0  0  0  0  0
    5.0320   -4.4970   29.3220 C   0  0  2  0  0  0  0  0  0  0  0  0
    5.0910   -3.1780   29.6890 C   0  0  0  0  0  0  0  0  0  0  0  0
    4.7000   -5.4440   30.2390 C   0  0  0  0  0  0  0  0  0  0  0  0
    3.4110   -5.5730   30.6430 O   0  0  0  0  0  0  0  0  0  0  0  0
    5.6570   -6.2860   30.7730 O   0  0  0  0  0  0  0  0  0  0  0  0
    5.9050   -7.5750   30.2270 C   0  0  0  0  0  0  0  0  0  0  0  0
    5.8180   -4.8420   23.5020 C   0  0  0  0  0  0  0  0  0  0  0  0
    6.5470   -5.3740   22.2960 C   0  0  0  0  0  0  0  0  0  0  0  0
  1  2  1  0
  2  3  2  0
  2  4  1  0
  4  5  1  0
  5  6  1  0
  6  7  1  0
  7  8  1  0
  8  9  2  0
  8 10  1  0
 10 11  1  0
 11 12  1  0
 12 13  1  0
 13 14  1  1
 13 15  1  0
 15 16  2  0
 15 17  1  0
 17 18  1  0
  7 19  1  0
  4 20  1  0
 19 20  1  0
M  END
