piperidine-amides-27916-covalent
     RDKit          3D

 25 27  0  0  0  0  0  0  0  0999 V2000
    7.0200   -3.3510   19.3300 C   0  0  0  0  0  0  0  0  0  0  0  0
    6.3830   -4.2340   20.3370 C   0  0  0  0  0  0  0  0  0  0  0  0
    5.3440   -4.8100   19.9670 O   0  0  0  0  0  0  0  0  0  0  0  0
    6.9460   -4.4660   21.6050 N   0  0  0  0  0  0  0  0  0  0  0  0
    6.4930   -5.5750   22.3690 C   0  0  0  0  0  0  0  0  0  0  0  0
    5.7190   -5.2130   23.5610 C   0  0  0  0  0  0  0  0  0  0  0  0
    6.1640   -3.9950   24.2890 C   0  0  0  0  0  0  0  0  0  0  0  0
    5.0170   -3.4610   25.0920 C   0  0  0  0  0  0  0  0  0  0  0  0
    4.0010   -3.1290   24.4630 O   0  0  0  0  0  0  0  0  0  0  0  0
    5.0400   -3.3070   26.4940 N   0  0  0  0  0  0  0  0  0  0  0  0
    5.6650   -4.3740   27.3070 C   0  0  0  0  0  0  0  0  0  0  0  0
    6.7480   -3.4930   27.3810 C   0  0  0  0  0  0  0  0  0  0  0  0
    7.2570   -2.8050   28.5550 C   0  0  0  0  0  0  0  0  0  0  0  0
    8.4730   -1.8250   27.9330 S   0  0  0  0  0  0  0  0  0  0  0  0
    8.3660   -2.2790   26.2470 C   0  0  0  0  0  0  0  0  0  0  0  0
    8.9840   -1.9580   25.0650 C   0  0  0  0  0  0  0  0  0  0  0  0
    7.3950   -3.1690   26.1960 N   0  0  0  0  0  0  0  0  0  0  0  0
    5.4230   -1.9890   27.0850 C   0  0  0  0  0  0  0  0  0  0  0  0
    5.5540   -0.8700   26.3760 C   0  0  0  0  0  0  0  0  0  0  0  0
    5.9060    0.3400   26.9340 C   0  0  0  0  0  0  0  0  0  0  0  0
    6.2050    0.7380   28.2800 C   0  0  0  0  0  0  0  0  0  0  0  0
    6.0520   -0.4560   28.9480 N   0  0  0  0  0  0  0  0  0  0  0  0
    5.7180   -1.6550   28.4790 C   0  0  0  0  0  0  0  0  0  0  0  0
    6.6650   -2.8960   23.4010 C   0  0  0  0  0  0  0  0  0  0  0  0
    7.6060   -3.4140   22.3470 C   0  0  0  0  0  0  0  0  0  0  0  0
  1  2  1  0
  2  3  2  0
  2  4  1  0
  4  5  1  0
  5  6  1  0
  6  7  1  0
  7  8  1  0
  8  9  2  0
  8 10  1  0
 10 11  1  0
 11 12  1  0
 12 13  2  0
 13 14  1  0
 14 15  1  0
 15 16  1  0
 12 17  1  0
 15 17  2  0
 10 18  1  0
 18 19  2  0
 19 20  1  0
 20 21  2  0
 21 22  1  0
 18 23  1  0
 22 23  2  0
  7 24  1  0
  4 25  1  0
 24 25  1  0
M  END
