piperidine-amides-27795-covalent
     RDKit          3D

 26 29  0  0  0  0  0  0  0  0999 V2000
    7.0230   -3.3450   19.3450 C   0  0  0  0  0  0  0  0  0  0  0  0
    6.3690   -4.1780   20.3810 C   0  0  0  0  0  0  0  0  0  0  0  0
    5.3780   -4.8300   19.9860 O   0  0  0  0  0  0  0  0  0  0  0  0
    6.8540   -4.2750   21.7060 N   0  0  0  0  0  0  0  0  0  0  0  0
    7.6430   -3.2320   22.3070 C   0  0  0  0  0  0  0  0  0  0  0  0
    7.3070   -2.9640   23.7090 C   0  0  0  0  0  0  0  0  0  0  0  0
    6.1380   -3.7430   24.1580 C   0  0  0  0  0  0  0  0  0  0  0  0
    5.5550   -3.3040   25.4690 C   0  0  0  0  0  0  0  0  0  0  0  0
    4.3140   -3.2550   25.4890 O   0  0  0  0  0  0  0  0  0  0  0  0
    6.2480   -2.9380   26.6650 N   0  0  0  0  0  0  0  0  0  0  0  0
    6.2800   -3.8850   27.8250 C   0  0  0  0  0  0  0  0  0  0  0  0
    5.9280   -5.3000   27.5280 C   0  0  0  0  0  0  0  0  0  0  0  0
    6.4910   -6.3510   28.3670 C   0  0  0  0  0  0  0  0  0  0  0  0
    5.7000   -6.4120   29.5720 N   0  0  0  0  0  0  0  0  0  0  0  0
    5.9910   -1.6820   27.3720 C   0  0  1  0  0  0  0  0  0  0  0  0
    4.8120   -1.8720   28.0990 C   0  0  0  0  0  0  0  0  0  0  0  0
    4.5090   -0.7510   28.8240 C   0  0  2  0  0  0  0  0  0  0  0  0
    4.3220    0.3060   27.9840 C   0  0  0  0  0  0  0  0  0  0  0  0
    5.4790    0.5950   27.3540 C   0  0  1  0  0  0  0  0  0  0  0  0
    6.3860    1.0180   28.3230 C   0  0  0  0  0  0  0  0  0  0  0  0
    6.7530   -0.1360   29.1770 C   0  0  1  0  0  0  0  0  0  0  0  0
    5.4240   -0.4820   29.8140 C   0  0  0  0  0  0  0  0  0  0  0  0
    7.0130   -1.3880   28.3640 C   0  0  0  0  0  0  0  0  0  0  0  0
    5.8800   -0.5000   26.6190 C   0  0  0  0  0  0  0  0  0  0  0  0
    6.2500   -5.1770   23.8700 C   0  0  0  0  0  0  0  0  0  0  0  0
    6.7180   -5.5090   22.4860 C   0  0  0  0  0  0  0  0  0  0  0  0
  1  2  1  0
  2  3  2  0
  2  4  1  0
  4  5  1  0
  5  6  1  0
  6  7  1  0
  7  8  1  0
  8  9  2  0
  8 10  1  0
 10 11  1  0
 11 12  1  0
 12 13  1  0
 13 14  3  0
 15 10  1  6
 15 16  1  0
 17 16  1  6
 17 18  1  0
 19 18  1  1
 19 20  1  0
 21 20  1  6
 17 22  1  0
 21 22  1  0
 15 23  1  0
 21 23  1  0
 15 24  1  0
 19 24  1  0
  7 25  1  0
  4 26  1  0
 25 26  1  0
M  END
