piperidine-amides-27315-covalent
     RDKit          3D

 24 25  0  0  0  0  0  0  0  0999 V2000
    7.0650   -3.2930   19.2650 C   0  0  0  0  0  0  0  0  0  0  0  0
    6.3780   -4.0740   20.3040 C   0  0  0  0  0  0  0  0  0  0  0  0
    5.3440   -4.6960   19.9400 O   0  0  0  0  0  0  0  0  0  0  0  0
    6.8850   -4.1440   21.6110 N   0  0  0  0  0  0  0  0  0  0  0  0
    7.7360   -3.1180   22.1810 C   0  0  0  0  0  0  0  0  0  0  0  0
    7.3690   -2.9360   23.6270 C   0  0  0  0  0  0  0  0  0  0  0  0
    6.0540   -3.6000   23.9240 C   0  0  0  0  0  0  0  0  0  0  0  0
    5.5810   -3.2990   25.3010 C   0  0  0  0  0  0  0  0  0  0  0  0
    4.3450   -3.3310   25.4790 O   0  0  0  0  0  0  0  0  0  0  0  0
    6.3990   -2.9640   26.4050 N   0  0  0  0  0  0  0  0  0  0  0  0
    6.8710   -1.6040   26.5150 C   0  0  0  0  0  0  0  0  0  0  0  0
    6.2860   -3.7830   27.5960 C   0  0  0  0  0  0  0  0  0  0  0  0
    5.2530   -3.3280   28.3800 C   0  0  0  0  0  0  0  0  0  0  0  0
    5.0350   -2.0010   28.7590 C   0  0  0  0  0  0  0  0  0  0  0  0
    3.9450   -1.6450   29.5670 C   0  0  0  0  0  0  0  0  0  0  0  0
    3.7850   -0.3440   29.9000 N   0  0  0  0  0  0  0  0  0  0  0  0
    2.6230    0.2130   29.7460 O   0  0  0  0  0  0  0  0  0  0  0  0
    4.7820    0.3800   30.4510 O   0  0  0  0  0  0  0  0  0  0  0  0
    3.0600   -2.6080   30.0070 C   0  0  0  0  0  0  0  0  0  0  0  0
    3.2270   -3.9230   29.6660 C   0  0  0  0  0  0  0  0  0  0  0  0
    4.3880   -4.3210   28.8020 C   0  0  0  0  0  0  0  0  0  0  0  0
    4.6060   -6.0320   28.3660 Cl  0  0  0  0  0  0  0  0  0  0  0  0
    6.1230   -5.0760   23.7180 C   0  0  0  0  0  0  0  0  0  0  0  0
    6.6180   -5.3960   22.3260 C   0  0  0  0  0  0  0  0  0  0  0  0
  1  2  1  0
  2  3  2  0
  2  4  1  0
  4  5  1  0
  5  6  1  0
  6  7  1  0
  7  8  1  0
  8  9  2  0
  8 10  1  0
 10 11  1  0
 10 12  1  0
 12 13  1  0
 13 14  2  0
 14 15  1  0
 15 16  1  0
 16 17  2  0
 16 18  1  0
 15 19  2  0
 19 20  1  0
 13 21  1  0
 20 21  2  0
 21 22  1  0
  7 23  1  0
  4 24  1  0
 23 24  1  0
M  CHG  2  16   1  18  -1
M  END
