piperidine-amides-2680-covalent
     RDKit          3D

 25 27  0  0  0  0  0  0  0  0999 V2000
    7.0890   -3.3020   19.2130 C   0  0  0  0  0  0  0  0  0  0  0  0
    6.3480   -4.0620   20.2140 C   0  0  0  0  0  0  0  0  0  0  0  0
    5.2970   -4.6240   19.9130 O   0  0  0  0  0  0  0  0  0  0  0  0
    6.8710   -4.2040   21.5390 N   0  0  0  0  0  0  0  0  0  0  0  0
    7.7230   -3.1770   22.0840 C   0  0  0  0  0  0  0  0  0  0  0  0
    7.5220   -3.0810   23.5610 C   0  0  0  0  0  0  0  0  0  0  0  0
    6.1040   -3.5440   23.8520 C   0  0  0  0  0  0  0  0  0  0  0  0
    5.7280   -3.2020   25.2450 C   0  0  0  0  0  0  0  0  0  0  0  0
    4.5840   -3.3880   25.7010 O   0  0  0  0  0  0  0  0  0  0  0  0
    6.7410   -2.6430   26.0460 N   0  0  0  0  0  0  0  0  0  0  0  0
    6.4430   -1.5640   26.9550 C   0  0  1  0  0  0  0  0  0  0  0  0
    5.6530   -0.5590   26.1510 C   0  0  0  0  0  0  0  0  0  0  0  0
    4.7840    0.3390   26.7860 C   0  0  0  0  0  0  0  0  0  0  0  0
    4.0370    1.2850   26.0550 C   0  0  0  0  0  0  0  0  0  0  0  0
    4.1670    1.3260   24.6950 C   0  0  0  0  0  0  0  0  0  0  0  0
    5.0620    0.4010   24.0590 C   0  0  0  0  0  0  0  0  0  0  0  0
    5.7780   -0.5110   24.7770 C   0  0  0  0  0  0  0  0  0  0  0  0
    5.9110   -1.7620   28.1940 C   0  0  0  0  0  0  0  0  0  0  0  0
    6.2850   -1.1270   29.3720 C   0  0  0  0  0  0  0  0  0  0  0  0
    5.4940   -1.6290   30.3160 N   0  0  0  0  0  0  0  0  0  0  0  0
    4.6550   -2.5310   29.8370 N   0  0  0  0  0  0  0  0  0  0  0  0
    3.6460   -3.2870   30.5860 C   0  0  0  0  0  0  0  0  0  0  0  0
    4.9090   -2.6200   28.5220 C   0  0  0  0  0  0  0  0  0  0  0  0
    5.9790   -5.0240   23.6250 C   0  0  0  0  0  0  0  0  0  0  0  0
    6.5180   -5.3690   22.2760 C   0  0  0  0  0  0  0  0  0  0  0  0
  1  2  1  0
  2  3  2  0
  2  4  1  0
  4  5  1  0
  5  6  1  0
  6  7  1  0
  7  8  1  0
  8  9  2  0
  8 10  1  0
 11 10  1  6
 11 12  1  0
 12 13  2  0
 13 14  1  0
 14 15  2  0
 15 16  1  0
 12 17  1  0
 16 17  2  0
 11 18  1  0
 18 19  1  0
 19 20  2  0
 20 21  1  0
 21 22  1  0
 18 23  2  0
 21 23  1  0
  7 24  1  0
  4 25  1  0
 24 25  1  0
M  END
