piperidine-amides-33860-covalent
     RDKit          3D

 30 32  0  0  0  0  0  0  0  0999 V2000
    7.1070   -3.3900   19.3870 C   0  0  0  0  0  0  0  0  0  0  0  0
    6.4310   -4.2430   20.3720 C   0  0  0  0  0  0  0  0  0  0  0  0
    5.3840   -4.8200   19.9820 O   0  0  0  0  0  0  0  0  0  0  0  0
    6.9740   -4.4450   21.6690 N   0  0  0  0  0  0  0  0  0  0  0  0
    6.4290   -5.4840   22.4500 C   0  0  0  0  0  0  0  0  0  0  0  0
    5.7380   -5.0260   23.6600 C   0  0  0  0  0  0  0  0  0  0  0  0
    6.2790   -3.8310   24.3880 C   0  0  0  0  0  0  0  0  0  0  0  0
    5.2530   -3.2800   25.3550 C   0  0  0  0  0  0  0  0  0  0  0  0
    4.2990   -2.6550   24.8710 O   0  0  0  0  0  0  0  0  0  0  0  0
    5.2970   -3.4180   26.7760 N   0  0  0  0  0  0  0  0  0  0  0  0
    4.2230   -3.4940   27.6860 C   0  0  0  0  0  0  0  0  0  0  0  0
    4.3910   -4.2240   28.9490 C   0  0  0  0  0  0  0  0  0  0  0  0
    5.5030   -4.8970   29.2460 N   0  0  0  0  0  0  0  0  0  0  0  0
    5.6010   -6.3140   29.5380 C   0  0  0  0  0  0  0  0  0  0  0  0
    4.5380   -6.6870   30.3470 C   0  0  0  0  0  0  0  0  0  0  0  0
    5.0410   -7.6750   31.1120 N   0  0  0  0  0  0  0  0  0  0  0  0
    5.3520   -7.5720   32.5300 C   0  0  0  0  0  0  0  0  0  0  0  0
    6.2810   -6.7780   33.1680 O   0  0  0  0  0  0  0  0  0  0  0  0
    4.5610   -8.4960   33.4040 C   0  0  0  0  0  0  0  0  0  0  0  0
    5.6660   -9.3560   33.9850 C   0  0  0  0  0  0  0  0  0  0  0  0
    5.3480  -10.4550   34.9450 C   0  0  0  0  0  0  0  0  0  0  0  0
    3.8600  -10.5820   35.2400 C   0  0  0  0  0  0  0  0  0  0  0  0
    3.3200  -11.5130   36.0840 O   0  0  0  0  0  0  0  0  0  0  0  0
    3.3290  -12.9010   35.8080 C   0  0  0  0  0  0  0  0  0  0  0  0
    2.8160   -9.6650   34.6050 C   0  0  0  0  0  0  0  0  0  0  0  0
    3.2130   -8.6510   33.7050 C   0  0  0  0  0  0  0  0  0  0  0  0
    6.5940   -4.5490   28.3460 C   0  0  0  0  0  0  0  0  0  0  0  0
    6.5200   -3.3210   27.4460 C   0  0  0  0  0  0  0  0  0  0  0  0
    6.8170   -2.7680   23.4610 C   0  0  0  0  0  0  0  0  0  0  0  0
    7.6260   -3.3570   22.3240 C   0  0  0  0  0  0  0  0  0  0  0  0
  1  2  1  0
  2  3  2  0
  2  4  1  0
  4  5  1  0
  5  6  1  0
  6  7  1  0
  7  8  1  0
  8  9  2  0
  8 10  1  0
 10 11  1  0
 11 12  1  0
 12 13  1  0
 13 14  1  0
 14 15  1  0
 15 16  1  0
 16 17  1  0
 17 18  2  0
 17 19  1  0
 19 20  2  0
 20 21  1  0
 21 22  2  0
 22 23  1  0
 23 24  1  0
 22 25  1  0
 19 26  1  0
 25 26  2  0
 13 27  1  0
 10 28  1  0
 27 28  1  0
  7 29  1  0
  4 30  1  0
 29 30  1  0
M  END
