piperidine-amides-11163-covalent
     RDKit          3D

 20 21  0  0  0  0  0  0  0  0999 V2000
    7.1280   -3.2660   19.1820 C   0  0  0  0  0  0  0  0  0  0  0  0
    6.3620   -3.9780   20.2050 C   0  0  0  0  0  0  0  0  0  0  0  0
    5.3080   -4.5590   19.8890 O   0  0  0  0  0  0  0  0  0  0  0  0
    6.8270   -4.0520   21.5220 N   0  0  0  0  0  0  0  0  0  0  0  0
    7.7420   -3.0730   22.0600 C   0  0  0  0  0  0  0  0  0  0  0  0
    7.4600   -3.0300   23.5260 C   0  0  0  0  0  0  0  0  0  0  0  0
    6.0160   -3.3170   23.8090 C   0  0  0  0  0  0  0  0  0  0  0  0
    5.6330   -3.0390   25.2120 C   0  0  0  0  0  0  0  0  0  0  0  0
    4.4500   -3.2760   25.6090 O   0  0  0  0  0  0  0  0  0  0  0  0
    6.5360   -2.4920   26.1570 N   0  0  0  0  0  0  0  0  0  0  0  0
    6.5850   -2.9860   27.5470 C   0  0  0  0  0  0  0  0  0  0  0  0
    7.9370   -3.5220   27.7370 C   0  0  0  0  0  0  0  0  0  0  0  0
    7.8930   -4.7610   28.2210 N   0  0  0  0  0  0  0  0  0  0  0  0
    8.7950   -5.7510   27.8140 C   0  0  0  0  0  0  0  0  0  0  0  0
    8.9780   -5.6050   26.3370 C   0  0  0  0  0  0  0  0  0  0  0  0
    7.2960   -5.3280   25.7760 S   0  0  0  0  0  0  0  0  0  0  0  0
    6.1950   -5.7730   27.0980 C   0  0  0  0  0  0  0  0  0  0  0  0
    6.6690   -5.4760   28.4690 C   0  0  0  0  0  0  0  0  0  0  0  0
    5.6730   -4.7390   23.3770 C   0  0  0  0  0  0  0  0  0  0  0  0
    6.4830   -5.2010   22.3300 C   0  0  0  0  0  0  0  0  0  0  0  0
  1  2  1  0
  2  3  2  0
  2  4  1  0
  4  5  1  0
  5  6  1  0
  6  7  1  0
  7  8  1  0
  8  9  2  0
  8 10  1  0
 10 11  1  0
 11 12  1  0
 12 13  1  0
 13 14  1  0
 14 15  1  0
 15 16  1  0
 16 17  1  0
 13 18  1  0
 17 18  1  0
  7 19  1  0
  4 20  1  0
 19 20  1  0
M  END
