piperidine-amides-24143-covalent
     RDKit          3D

 24 25  0  0  0  0  0  0  0  0999 V2000
    7.1750   -3.2890   19.2630 C   0  0  0  0  0  0  0  0  0  0  0  0
    6.3940   -4.0600   20.2350 C   0  0  0  0  0  0  0  0  0  0  0  0
    5.3130   -4.5970   19.9070 O   0  0  0  0  0  0  0  0  0  0  0  0
    6.9000   -4.2360   21.5240 N   0  0  0  0  0  0  0  0  0  0  0  0
    7.6850   -3.1770   22.1020 C   0  0  0  0  0  0  0  0  0  0  0  0
    6.8140   -2.6030   23.2100 C   0  0  0  0  0  0  0  0  0  0  0  0
    6.5350   -3.7630   24.1370 C   0  0  0  0  0  0  0  0  0  0  0  0
    5.7490   -3.2540   25.2740 C   0  0  0  0  0  0  0  0  0  0  0  0
    4.5110   -3.1540   25.1370 O   0  0  0  0  0  0  0  0  0  0  0  0
    6.3990   -2.8770   26.4700 N   0  0  0  0  0  0  0  0  0  0  0  0
    6.8360   -1.5230   26.5890 C   0  0  0  0  0  0  0  0  0  0  0  0
    6.0590   -3.5670   27.6900 C   0  0  0  0  0  0  0  0  0  0  0  0
    4.9980   -4.3840   27.4000 C   0  0  0  0  0  0  0  0  0  0  0  0
    3.7190   -3.9020   27.2290 C   0  0  0  0  0  0  0  0  0  0  0  0
    2.6200   -4.7220   26.9330 C   0  0  0  0  0  0  0  0  0  0  0  0
    2.7510   -6.0940   26.7900 C   0  0  0  0  0  0  0  0  0  0  0  0
    1.7540   -6.9620   26.5030 O   0  0  0  0  0  0  0  0  0  0  0  0
    1.7690   -8.3220   26.4190 C   0  0  0  0  0  0  0  0  0  0  0  0
    4.1030   -6.6560   26.9680 C   0  0  0  0  0  0  0  0  0  0  0  0
    5.1970   -5.7090   27.2760 C   0  0  0  0  0  0  0  0  0  0  0  0
    6.4820   -6.1620   27.4540 O   0  0  0  0  0  0  0  0  0  0  0  0
    6.8880   -6.3620   28.7740 C   0  0  0  0  0  0  0  0  0  0  0  0
    5.7330   -4.8220   23.4290 C   0  0  0  0  0  0  0  0  0  0  0  0
    6.3720   -5.2880   22.3140 C   0  0  0  0  0  0  0  0  0  0  0  0
  1  2  1  0
  2  3  2  0
  2  4  1  0
  4  5  1  0
  5  6  1  0
  6  7  1  0
  7  8  1  0
  8  9  2  0
  8 10  1  0
 10 11  1  0
 10 12  1  0
 12 13  1  0
 13 14  2  0
 14 15  1  0
 15 16  2  0
 16 17  1  0
 17 18  1  0
 16 19  1  0
 13 20  1  0
 19 20  2  0
 20 21  1  0
 21 22  1  0
  7 23  1  0
  4 24  1  0
 23 24  1  0
M  END
