piperidine-amides-32791-covalent
     RDKit          3D

 28 31  0  0  0  0  0  0  0  0999 V2000
    7.1010   -3.3550   19.3640 C   0  0  0  0  0  0  0  0  0  0  0  0
    6.3540   -4.1990   20.3320 C   0  0  0  0  0  0  0  0  0  0  0  0
    5.3050   -4.7450   19.9530 O   0  0  0  0  0  0  0  0  0  0  0  0
    6.8810   -4.4190   21.6260 N   0  0  0  0  0  0  0  0  0  0  0  0
    6.5370   -5.5930   22.3770 C   0  0  0  0  0  0  0  0  0  0  0  0
    5.6230   -5.0910   23.4960 C   0  0  0  0  0  0  0  0  0  0  0  0
    6.4200   -4.1500   24.3400 C   0  0  0  0  0  0  0  0  0  0  0  0
    5.6400   -3.6520   25.5210 C   0  0  0  0  0  0  0  0  0  0  0  0
    4.5940   -3.0800   25.2040 O   0  0  0  0  0  0  0  0  0  0  0  0
    6.0110   -3.7800   26.8950 N   0  0  0  0  0  0  0  0  0  0  0  0
    5.5570   -2.9140   27.9090 C   0  0  0  0  0  0  0  0  0  0  0  0
    4.5460   -3.2730   28.7690 C   0  0  0  0  0  0  0  0  0  0  0  0
    4.2030   -4.6580   28.4990 N   0  0  0  0  0  0  0  0  0  0  0  0
    3.0570   -5.3300   28.9080 C   0  0  0  0  0  0  0  0  0  0  0  0
    2.4280   -4.9190   30.0550 C   0  0  0  0  0  0  0  0  0  0  0  0
    1.1970   -5.6000   30.5530 C   0  0  0  0  0  0  0  0  0  0  0  0
    0.7170   -6.6400   29.8370 N   0  0  0  0  0  0  0  0  0  0  0  0
    1.3950   -7.0390   28.6580 C   0  0  0  0  0  0  0  0  0  0  0  0
    0.7770   -8.2130   27.9360 C   0  0  0  0  0  0  0  0  0  0  0  0
    1.3410   -8.6950   26.7750 C   0  0  0  0  0  0  0  0  0  0  0  0
    0.5640  -10.0600   26.0000 Cl  0  0  0  0  0  0  0  0  0  0  0  0
    2.5770   -8.1070   26.1580 C   0  0  0  0  0  0  0  0  0  0  0  0
    3.1130   -6.9230   26.9820 C   0  0  0  0  0  0  0  0  0  0  0  0
    2.5920   -6.4000   28.1430 C   0  0  0  0  0  0  0  0  0  0  0  0
    5.3060   -5.5370   28.5030 C   0  0  0  0  0  0  0  0  0  0  0  0
    6.2860   -5.1100   27.4990 C   0  0  0  0  0  0  0  0  0  0  0  0
    6.8670   -2.9350   23.5390 C   0  0  0  0  0  0  0  0  0  0  0  0
    7.6120   -3.3560   22.3200 C   0  0  0  0  0  0  0  0  0  0  0  0
  1  2  1  0
  2  3  2  0
  2  4  1  0
  4  5  1  0
  5  6  1  0
  6  7  1  0
  7  8  1  0
  8  9  2  0
  8 10  1  0
 10 11  1  0
 11 12  1  0
 12 13  1  0
 13 14  1  0
 14 15  2  0
 15 16  1  0
 16 17  2  0
 17 18  1  0
 18 19  1  0
 19 20  2  0
 20 21  1  0
 20 22  1  0
 22 23  2  0
 14 24  1  0
 18 24  2  0
 23 24  1  0
 13 25  1  0
 10 26  1  0
 25 26  1  0
  7 27  1  0
  4 28  1  0
 27 28  1  0
M  END
