piperidine-amides-21683-covalent
     RDKit          3D

 23 25  0  0  0  0  0  0  0  0999 V2000
    7.1100   -3.3760   19.3780 C   0  0  0  0  0  0  0  0  0  0  0  0
    6.4210   -4.2160   20.3530 C   0  0  0  0  0  0  0  0  0  0  0  0
    5.3530   -4.7610   19.9630 O   0  0  0  0  0  0  0  0  0  0  0  0
    6.9760   -4.4370   21.6220 N   0  0  0  0  0  0  0  0  0  0  0  0
    6.6650   -5.5960   22.4030 C   0  0  0  0  0  0  0  0  0  0  0  0
    5.9570   -5.1310   23.6470 C   0  0  0  0  0  0  0  0  0  0  0  0
    6.6240   -3.9460   24.3150 C   0  0  0  0  0  0  0  0  0  0  0  0
    5.7550   -3.4690   25.4150 C   0  0  0  0  0  0  0  0  0  0  0  0
    4.6760   -2.9310   25.0880 O   0  0  0  0  0  0  0  0  0  0  0  0
    6.0530   -3.5850   26.7860 N   0  0  0  0  0  0  0  0  0  0  0  0
    6.8970   -4.6220   27.2570 C   0  0  0  0  0  0  0  0  0  0  0  0
    6.1630   -5.6960   27.9800 C   0  0  1  0  0  0  0  0  0  0  0  0
    6.7330   -6.3220   29.0170 C   0  0  0  0  0  0  0  0  0  0  0  0
    5.9130   -7.1560   29.7630 C   0  0  0  0  0  0  0  0  0  0  0  0
    4.5560   -7.0830   29.4390 C   0  0  0  0  0  0  0  0  0  0  0  0
    4.0000   -5.8820   29.0060 C   0  0  0  0  0  0  0  0  0  0  0  0
    4.9300   -5.0760   28.4730 N   0  0  0  0  0  0  0  0  0  0  0  0
    5.0360   -3.8110   28.9490 C   0  0  0  0  0  0  0  0  0  0  0  0
    5.2630   -2.9340   27.7460 C   0  0  1  0  0  0  0  0  0  0  0  0
    5.8550   -1.7070   28.4450 C   0  0  0  0  0  0  0  0  0  0  0  0
    5.3140   -1.3020   29.6960 N   0  0  0  0  0  0  0  0  0  0  0  0
    6.8740   -2.8000   23.3200 C   0  0  0  0  0  0  0  0  0  0  0  0
    7.7780   -3.4070   22.2720 C   0  0  0  0  0  0  0  0  0  0  0  0
  1  2  1  0
  2  3  2  0
  2  4  1  0
  4  5  1  0
  5  6  1  0
  6  7  1  0
  7  8  1  0
  8  9  2  0
  8 10  1  0
 10 11  1  0
 12 11  1  1
 12 13  1  0
 13 14  1  0
 14 15  1  0
 15 16  1  0
 12 17  1  0
 16 17  1  0
 17 18  1  0
 10 19  1  0
 18 19  1  0
 19 20  1  1
 20 21  3  0
  7 22  1  0
  4 23  1  0
 22 23  1  0
M  END
