piperidine-amides-1254-covalent
     RDKit          3D

 22 23  0  0  0  0  0  0  0  0999 V2000
    7.0450   -3.2640   19.2240 C   0  0  0  0  0  0  0  0  0  0  0  0
    6.3060   -4.1030   20.2100 C   0  0  0  0  0  0  0  0  0  0  0  0
    5.2250   -4.5960   19.8800 O   0  0  0  0  0  0  0  0  0  0  0  0
    6.8670   -4.3780   21.4680 N   0  0  0  0  0  0  0  0  0  0  0  0
    6.4950   -5.5780   22.1670 C   0  0  0  0  0  0  0  0  0  0  0  0
    5.6510   -5.1290   23.3670 C   0  0  0  0  0  0  0  0  0  0  0  0
    6.4440   -4.0830   24.0740 C   0  0  0  0  0  0  0  0  0  0  0  0
    5.9050   -3.7580   25.4140 C   0  0  0  0  0  0  0  0  0  0  0  0
    4.7770   -3.2440   25.4760 O   0  0  0  0  0  0  0  0  0  0  0  0
    6.7030   -4.0520   26.5280 N   0  0  0  0  0  0  0  0  0  0  0  0
    8.0740   -4.4000   26.4430 C   0  0  0  0  0  0  0  0  0  0  0  0
    8.9490   -3.6300   25.7120 C   0  0  0  0  0  0  0  0  0  0  0  0
   10.2490   -3.8840   25.2940 C   0  0  0  0  0  0  0  0  0  0  0  0
   10.6430   -2.6880   24.5580 N   0  0  0  0  0  0  0  0  0  0  0  0
   11.7550   -2.2930   23.9010 C   0  0  0  0  0  0  0  0  0  0  0  0
   12.9980   -2.5070   24.6700 C   0  0  0  0  0  0  0  0  0  0  0  0
   13.9760   -2.9560   23.9000 O   0  0  0  0  0  0  0  0  0  0  0  0
    9.7450   -1.7150   24.4640 N   0  0  0  0  0  0  0  0  0  0  0  0
    8.7180   -2.3620   25.2000 C   0  0  0  0  0  0  0  0  0  0  0  0
    7.3960   -1.6030   25.3900 C   0  0  0  0  0  0  0  0  0  0  0  0
    6.5430   -2.8350   23.1860 C   0  0  0  0  0  0  0  0  0  0  0  0
    7.4880   -3.2690   22.1380 C   0  0  0  0  0  0  0  0  0  0  0  0
  1  2  1  0
  2  3  2  0
  2  4  1  0
  4  5  1  0
  5  6  1  0
  6  7  1  0
  7  8  1  0
  8  9  2  0
  8 10  1  0
 10 11  1  0
 11 12  1  0
 12 13  2  0
 13 14  1  0
 14 15  1  0
 15 16  1  0
 16 17  1  0
 14 18  1  0
 12 19  1  0
 18 19  2  0
 19 20  1  0
  7 21  1  0
  4 22  1  0
 21 22  1  0
M  END
