piperidine-amides-4536-covalent
     RDKit          3D

 25 27  0  0  0  0  0  0  0  0999 V2000
    7.1420   -3.2610   19.2040 C   0  0  0  0  0  0  0  0  0  0  0  0
    6.3910   -4.0200   20.2310 C   0  0  0  0  0  0  0  0  0  0  0  0
    5.3070   -4.5250   19.8760 O   0  0  0  0  0  0  0  0  0  0  0  0
    6.9180   -4.1890   21.5180 N   0  0  0  0  0  0  0  0  0  0  0  0
    6.6080   -5.3490   22.2820 C   0  0  0  0  0  0  0  0  0  0  0  0
    6.0630   -5.0160   23.5950 C   0  0  0  0  0  0  0  0  0  0  0  0
    6.1330   -3.5730   23.8950 C   0  0  0  0  0  0  0  0  0  0  0  0
    5.8520   -3.3230   25.3220 C   0  0  0  0  0  0  0  0  0  0  0  0
    4.7650   -2.7850   25.6080 O   0  0  0  0  0  0  0  0  0  0  0  0
    6.7620   -3.6820   26.3360 N   0  0  0  0  0  0  0  0  0  0  0  0
    6.2330   -3.9520   27.6840 C   0  0  1  0  0  0  0  0  0  0  0  0
    6.6420   -5.2870   28.2230 C   0  0  0  0  0  0  0  0  0  0  0  0
    5.8660   -5.8860   29.2610 N   0  0  0  0  0  0  0  0  0  0  0  0
    4.6310   -5.2830   29.7200 C   0  0  0  0  0  0  0  0  0  0  0  0
    4.1430   -6.0680   30.6900 N   0  0  0  0  0  0  0  0  0  0  0  0
    5.0450   -7.0610   30.7830 C   0  0  0  0  0  0  0  0  0  0  0  0
    6.0850   -6.9940   29.9500 N   0  0  0  0  0  0  0  0  0  0  0  0
    6.3850   -2.8140   28.5910 C   0  0  0  0  0  0  0  0  0  0  0  0
    7.6120   -2.2290   28.7410 C   0  0  0  0  0  0  0  0  0  0  0  0
    7.8050   -1.1590   29.5820 C   0  0  0  0  0  0  0  0  0  0  0  0
    6.8180   -0.5830   30.3290 C   0  0  0  0  0  0  0  0  0  0  0  0
    5.5590   -1.1400   30.2050 C   0  0  0  0  0  0  0  0  0  0  0  0
    5.3430   -2.2850   29.3130 C   0  0  0  0  0  0  0  0  0  0  0  0
    7.4220   -2.9300   23.5340 C   0  0  0  0  0  0  0  0  0  0  0  0
    7.7800   -3.1720   22.0970 C   0  0  0  0  0  0  0  0  0  0  0  0
  1  2  1  0
  2  3  2  0
  2  4  1  0
  4  5  1  0
  5  6  1  0
  6  7  1  0
  7  8  1  0
  8  9  2  0
  8 10  1  0
 10 11  1  0
 11 12  1  1
 12 13  1  0
 13 14  1  0
 14 15  2  0
 15 16  1  0
 13 17  1  0
 16 17  2  0
 11 18  1  0
 18 19  2  0
 19 20  1  0
 20 21  2  0
 21 22  1  0
 18 23  1  0
 22 23  2  0
  7 24  1  0
  4 25  1  0
 24 25  1  0
M  END
