piperidine-amides-23470-covalent
     RDKit          3D

 24 26  0  0  0  0  0  0  0  0999 V2000
    6.9880   -3.3720   19.4090 C   0  0  0  0  0  0  0  0  0  0  0  0
    6.3810   -4.2370   20.4420 C   0  0  0  0  0  0  0  0  0  0  0  0
    5.4510   -4.9780   20.0230 O   0  0  0  0  0  0  0  0  0  0  0  0
    6.8350   -4.2640   21.8100 N   0  0  0  0  0  0  0  0  0  0  0  0
    6.5950   -5.4340   22.5910 C   0  0  0  0  0  0  0  0  0  0  0  0
    6.0350   -5.1120   23.9000 C   0  0  0  0  0  0  0  0  0  0  0  0
    5.9440   -3.6540   24.1020 C   0  0  0  0  0  0  0  0  0  0  0  0
    5.0700   -3.2320   25.3090 C   0  0  0  0  0  0  0  0  0  0  0  0
    3.8550   -3.2170   25.0800 O   0  0  0  0  0  0  0  0  0  0  0  0
    5.4210   -2.8590   26.6570 N   0  0  0  0  0  0  0  0  0  0  0  0
    4.5220   -2.4800   27.6700 C   0  0  0  0  0  0  0  0  0  0  0  0
    4.6820   -3.0290   29.0230 C   0  0  0  0  0  0  0  0  0  0  0  0
    5.3460   -4.4020   28.9050 C   0  0  0  0  0  0  0  0  0  0  0  0
    6.2960   -4.7360   28.0160 C   0  0  0  0  0  0  0  0  0  0  0  0
    6.7980   -6.1890   28.1230 C   0  0  0  0  0  0  0  0  0  0  0  0
    6.0890   -6.9410   29.2390 C   0  0  0  0  0  0  0  0  0  0  0  0
    5.1430   -6.4500   30.0410 N   0  0  0  0  0  0  0  0  0  0  0  0
    4.7200   -5.2210   29.9380 C   0  0  0  0  0  0  0  0  0  0  0  0
    3.7410   -4.6480   30.7090 N   0  0  0  0  0  0  0  0  0  0  0  0
    3.6940   -5.3190   31.8770 C   0  0  0  0  0  0  0  0  0  0  0  0
    2.4750   -4.1590   30.0990 C   0  0  0  0  0  0  0  0  0  0  0  0
    6.5470   -3.4720   27.1510 C   0  0  0  0  0  0  0  0  0  0  0  0
    7.2910   -3.0440   23.8590 C   0  0  0  0  0  0  0  0  0  0  0  0
    7.4900   -3.1080   22.4410 C   0  0  0  0  0  0  0  0  0  0  0  0
  1  2  1  0
  2  3  2  0
  2  4  1  0
  4  5  1  0
  5  6  1  0
  6  7  1  0
  7  8  1  0
  8  9  2  0
  8 10  1  0
 10 11  1  0
 11 12  1  0
 12 13  1  0
 13 14  2  0
 14 15  1  0
 15 16  2  0
 16 17  1  0
 13 18  1  0
 17 18  2  0
 18 19  1  0
 19 20  1  0
 19 21  1  0
 10 22  1  0
 14 22  1  0
  7 23  1  0
  4 24  1  0
 23 24  1  0
M  END
