piperidine-amides-3199-covalent
     RDKit          3D

 22 23  0  0  0  0  0  0  0  0999 V2000
    7.0900   -3.2790   19.2740 C   0  0  0  0  0  0  0  0  0  0  0  0
    6.3500   -4.0590   20.2650 C   0  0  0  0  0  0  0  0  0  0  0  0
    5.3350   -4.6670   19.9310 O   0  0  0  0  0  0  0  0  0  0  0  0
    6.8260   -4.1530   21.6190 N   0  0  0  0  0  0  0  0  0  0  0  0
    6.6480   -5.3780   22.3660 C   0  0  0  0  0  0  0  0  0  0  0  0
    6.0460   -5.0670   23.7100 C   0  0  0  0  0  0  0  0  0  0  0  0
    6.1150   -3.5630   23.8800 C   0  0  0  0  0  0  0  0  0  0  0  0
    5.6870   -3.1380   25.2430 C   0  0  0  0  0  0  0  0  0  0  0  0
    4.4820   -3.0180   25.5420 O   0  0  0  0  0  0  0  0  0  0  0  0
    6.6700   -2.8520   26.2160 N   0  0  0  0  0  0  0  0  0  0  0  0
    6.3040   -2.8830   27.6150 C   0  0  0  0  0  0  0  0  0  0  0  0
    5.4870   -4.1180   27.8630 C   0  0  0  0  0  0  0  0  0  0  0  0
    4.4340   -4.0640   28.7830 C   0  0  0  0  0  0  0  0  0  0  0  0
    5.0080   -5.2190   29.3560 N   0  0  0  0  0  0  0  0  0  0  0  0
    4.2060   -6.7090   29.2370 S   0  0  0  0  0  0  0  0  0  0  0  0
    2.9070   -6.5840   29.9600 O   0  0  0  0  0  0  0  0  0  0  0  0
    4.9990   -7.8080   29.8440 O   0  0  0  0  0  0  0  0  0  0  0  0
    3.8730   -7.0250   27.5430 C   0  0  0  0  0  0  0  0  0  0  0  0
    2.7210   -7.7670   27.4360 C   0  0  0  0  0  0  0  0  0  0  0  0
    6.1190   -5.2100   28.4870 C   0  0  0  0  0  0  0  0  0  0  0  0
    7.4550   -2.9760   23.5290 C   0  0  0  0  0  0  0  0  0  0  0  0
    7.7330   -3.1400   22.1910 C   0  0  0  0  0  0  0  0  0  0  0  0
  1  2  1  0
  2  3  2  0
  2  4  1  0
  4  5  1  0
  5  6  1  0
  6  7  1  0
  7  8  1  0
  8  9  2  0
  8 10  1  0
 10 11  1  0
 11 12  1  0
 12 13  1  0
 13 14  1  0
 14 15  1  0
 15 16  2  0
 15 17  2  0
 15 18  1  0
 18 19  1  0
 12 20  1  0
 14 20  1  0
  7 21  1  0
  4 22  1  0
 21 22  1  0
M  END
