piperidine-amides-2748-covalent
     RDKit          3D

 25 26  0  0  0  0  0  0  0  0999 V2000
    7.1510   -3.2830   19.2280 C   0  0  0  0  0  0  0  0  0  0  0  0
    6.3400   -4.0030   20.1970 C   0  0  0  0  0  0  0  0  0  0  0  0
    5.2700   -4.5110   19.8700 O   0  0  0  0  0  0  0  0  0  0  0  0
    6.8350   -4.1690   21.5270 N   0  0  0  0  0  0  0  0  0  0  0  0
    6.4800   -5.3290   22.2870 C   0  0  0  0  0  0  0  0  0  0  0  0
    5.8020   -4.8980   23.5550 C   0  0  0  0  0  0  0  0  0  0  0  0
    6.6000   -3.7460   24.1670 C   0  0  0  0  0  0  0  0  0  0  0  0
    5.8480   -3.2380   25.3510 C   0  0  0  0  0  0  0  0  0  0  0  0
    4.6260   -3.0000   25.3060 O   0  0  0  0  0  0  0  0  0  0  0  0
    6.5520   -2.9980   26.5580 N   0  0  0  0  0  0  0  0  0  0  0  0
    6.2380   -3.7680   27.7550 C   0  0  0  0  0  0  0  0  0  0  0  0
    5.5610   -5.0510   27.3450 C   0  0  0  0  0  0  0  0  0  0  0  0
    4.2130   -5.1360   27.3080 N   0  0  0  0  0  0  0  0  0  0  0  0
    3.3030   -6.5720   27.1840 S   0  0  0  0  0  0  0  0  0  0  0  0
    4.0830   -7.5090   26.3360 O   0  0  0  0  0  0  0  0  0  0  0  0
    2.0080   -6.3120   26.4950 O   0  0  0  0  0  0  0  0  0  0  0  0
    3.0430   -7.2470   28.7820 C   0  0  0  0  0  0  0  0  0  0  0  0
    1.8100   -7.8030   29.0040 C   0  0  0  0  0  0  0  0  0  0  0  0
    1.4310   -8.3710   30.1930 C   0  0  0  0  0  0  0  0  0  0  0  0
    2.4050   -8.3820   31.2910 C   0  0  0  0  0  0  0  0  0  0  0  0
    2.1570   -8.9200   32.5330 C   0  0  0  0  0  0  0  0  0  0  0  0
    3.6380   -7.8180   31.0480 C   0  0  0  0  0  0  0  0  0  0  0  0
    3.9390   -7.2590   29.7930 C   0  0  0  0  0  0  0  0  0  0  0  0
    6.9730   -2.6700   23.2710 C   0  0  0  0  0  0  0  0  0  0  0  0
    7.6390   -3.1630   22.1710 C   0  0  0  0  0  0  0  0  0  0  0  0
  1  2  1  0
  2  3  2  0
  2  4  1  0
  4  5  1  0
  5  6  1  0
  6  7  1  0
  7  8  1  0
  8  9  2  0
  8 10  1  0
 10 11  1  0
 11 12  1  0
 12 13  1  0
 14 13  1  0
 14 15  2  0
 14 16  2  0
 14 17  1  0
 17 18  2  0
 18 19  1  0
 19 20  2  0
 20 21  1  0
 20 22  1  0
 17 23  1  0
 22 23  2  0
  7 24  1  0
  4 25  1  0
 24 25  1  0
M  END
