piperidine-amides-34323-covalent
     RDKit          3D

 30 32  0  0  0  0  0  0  0  0999 V2000
    7.0060   -3.3450   19.4370 C   0  0  0  0  0  0  0  0  0  0  0  0
    6.3730   -4.2550   20.4130 C   0  0  0  0  0  0  0  0  0  0  0  0
    5.4420   -4.9950   20.0180 O   0  0  0  0  0  0  0  0  0  0  0  0
    6.8100   -4.3290   21.7610 N   0  0  0  0  0  0  0  0  0  0  0  0
    6.4950   -5.5310   22.5270 C   0  0  0  0  0  0  0  0  0  0  0  0
    6.0230   -5.1320   23.9540 C   0  0  0  0  0  0  0  0  0  0  0  0
    5.8620   -3.6300   23.9710 C   0  0  0  0  0  0  0  0  0  0  0  0
    5.0530   -3.0360   25.1070 C   0  0  0  0  0  0  0  0  0  0  0  0
    4.2010   -2.2090   24.7580 O   0  0  0  0  0  0  0  0  0  0  0  0
    5.1710   -3.3260   26.5030 N   0  0  0  0  0  0  0  0  0  0  0  0
    6.2340   -4.0850   26.8380 C   0  0  0  0  0  0  0  0  0  0  0  0
    6.3300   -4.3920   28.3240 C   0  0  0  0  0  0  0  0  0  0  0  0
    5.5440   -3.6750   29.1660 C   0  0  0  0  0  0  0  0  0  0  0  0
    4.7030   -4.4490   29.9960 N   0  0  0  0  0  0  0  0  0  0  0  0
    3.6740   -3.8200   30.7330 C   0  0  0  0  0  0  0  0  0  0  0  0
    3.2620   -2.4980   30.6220 O   0  0  0  0  0  0  0  0  0  0  0  0
    3.0350   -4.6480   31.6650 C   0  0  0  0  0  0  0  0  0  0  0  0
    3.7910   -5.7460   32.0280 F   0  0  0  0  0  0  0  0  0  0  0  0
    1.8510   -5.0990   31.1420 F   0  0  0  0  0  0  0  0  0  0  0  0
    2.7410   -3.9650   32.8280 F   0  0  0  0  0  0  0  0  0  0  0  0
    4.3880   -5.6090   29.2690 C   0  0  0  0  0  0  0  0  0  0  0  0
    5.4110   -6.7240   29.4870 C   0  0  0  0  0  0  0  0  0  0  0  0
    4.7640   -7.7430   28.5810 C   0  0  0  0  0  0  0  0  0  0  0  0
    3.5100   -7.5860   27.7770 C   0  0  0  0  0  0  0  0  0  0  0  0
    2.7500   -6.5440   27.7170 N   0  0  0  0  0  0  0  0  0  0  0  0
    3.2330   -5.5900   28.4750 C   0  0  0  0  0  0  0  0  0  0  0  0
    4.7330   -2.5340   28.6620 C   0  0  0  0  0  0  0  0  0  0  0  0
    5.0760   -2.2040   27.3860 C   0  0  0  0  0  0  0  0  0  0  0  0
    7.2040   -2.9680   23.7610 C   0  0  0  0  0  0  0  0  0  0  0  0
    7.6190   -3.2700   22.3360 C   0  0  0  0  0  0  0  0  0  0  0  0
  1  2  1  0
  2  3  2  0
  2  4  1  0
  4  5  1  0
  5  6  1  0
  6  7  1  0
  7  8  1  0
  8  9  2  0
  8 10  1  0
 10 11  1  0
 11 12  1  0
 12 13  1  0
 13 14  1  0
 14 15  1  0
 15 16  2  0
 15 17  1  0
 17 18  1  0
 17 19  1  0
 17 20  1  0
 14 21  1  0
 21 22  2  0
 22 23  1  0
 23 24  2  0
 24 25  1  0
 21 26  1  0
 25 26  2  0
 13 27  1  0
 10 28  1  0
 27 28  1  0
  7 29  1  0
  4 30  1  0
 29 30  1  0
M  END
