piperidine-amides-3352-covalent
     RDKit          3D

 21 23  0  0  0  0  0  0  0  0999 V2000
    7.0550   -3.3410   19.2950 C   0  0  0  0  0  0  0  0  0  0  0  0
    6.3480   -4.1560   20.2720 C   0  0  0  0  0  0  0  0  0  0  0  0
    5.3200   -4.7480   19.9510 O   0  0  0  0  0  0  0  0  0  0  0  0
    6.8790   -4.3220   21.5900 N   0  0  0  0  0  0  0  0  0  0  0  0
    6.5430   -5.4790   22.3730 C   0  0  0  0  0  0  0  0  0  0  0  0
    5.7670   -5.0600   23.5870 C   0  0  0  0  0  0  0  0  0  0  0  0
    6.5220   -3.9200   24.2470 C   0  0  0  0  0  0  0  0  0  0  0  0
    5.7650   -3.4000   25.4230 C   0  0  0  0  0  0  0  0  0  0  0  0
    4.5140   -3.3150   25.4670 O   0  0  0  0  0  0  0  0  0  0  0  0
    6.5060   -2.9910   26.5510 N   0  0  0  0  0  0  0  0  0  0  0  0
    6.3780   -1.6420   27.0510 C   0  0  0  0  0  0  0  0  0  0  0  0
    5.7270   -0.5810   26.1370 C   0  0  0  0  0  0  0  0  0  0  0  0
    5.7550    0.5650   26.9130 N   0  0  0  0  0  0  0  0  0  0  0  0
    6.2410    0.6970   28.1650 C   0  0  0  0  0  0  0  0  0  0  0  0
    6.0920    2.0500   28.6390 N   0  0  0  0  0  0  0  0  0  0  0  0
    6.6080    1.8910   29.7820 N   0  0  0  0  0  0  0  0  0  0  0  0
    6.5350    0.8140   28.9440 C   0  0  0  0  0  0  0  0  0  0  0  0
    6.9390   -0.3440   29.2010 C   0  0  0  0  0  0  0  0  0  0  0  0
    6.9350   -1.5380   28.4530 C   0  0  0  0  0  0  0  0  0  0  0  0
    6.8900   -2.7960   23.3220 C   0  0  0  0  0  0  0  0  0  0  0  0
    7.6350   -3.2600   22.2640 C   0  0  0  0  0  0  0  0  0  0  0  0
  1  2  1  0
  2  3  2  0
  2  4  1  0
  4  5  1  0
  5  6  1  0
  6  7  1  0
  7  8  1  0
  8  9  2  0
  8 10  1  0
 10 11  1  0
 11 12  2  0
 12 13  1  0
 13 14  2  0
 14 15  1  0
 15 16  1  0
 16 17  2  0
 14 18  1  0
 17 18  1  0
 11 19  1  0
 18 19  2  0
  7 20  1  0
  4 21  1  0
 20 21  1  0
M  END
