piperidine-amides-32955-covalent
     RDKit          3D

 29 31  0  0  0  0  0  0  0  0999 V2000
    7.1810   -3.3500   19.3080 C   0  0  0  0  0  0  0  0  0  0  0  0
    6.4090   -4.1320   20.3060 C   0  0  0  0  0  0  0  0  0  0  0  0
    5.3600   -4.7010   19.9490 O   0  0  0  0  0  0  0  0  0  0  0  0
    6.9340   -4.2410   21.6110 N   0  0  0  0  0  0  0  0  0  0  0  0
    6.6640   -5.3860   22.4390 C   0  0  0  0  0  0  0  0  0  0  0  0
    5.8570   -4.8910   23.6430 C   0  0  0  0  0  0  0  0  0  0  0  0
    6.4980   -3.6650   24.2370 C   0  0  0  0  0  0  0  0  0  0  0  0
    5.6190   -3.0800   25.2680 C   0  0  0  0  0  0  0  0  0  0  0  0
    4.5630   -2.6090   24.8460 O   0  0  0  0  0  0  0  0  0  0  0  0
    5.9540   -3.1090   26.6210 N   0  0  0  0  0  0  0  0  0  0  0  0
    5.7250   -4.2960   27.3900 C   0  0  0  0  0  0  0  0  0  0  0  0
    6.2760   -4.6140   28.6300 C   0  0  0  0  0  0  0  0  0  0  0  0
    6.0160   -5.8140   29.3410 C   0  0  0  0  0  0  0  0  0  0  0  0
    5.1750   -6.7620   28.8310 C   0  0  0  0  0  0  0  0  0  0  0  0
    4.9830   -7.8770   29.5870 F   0  0  0  0  0  0  0  0  0  0  0  0
    4.5490   -6.5200   27.5360 C   0  0  0  0  0  0  0  0  0  0  0  0
    4.8460   -5.2330   26.8020 C   0  0  0  0  0  0  0  0  0  0  0  0
    4.2030   -5.0680   25.5580 F   0  0  0  0  0  0  0  0  0  0  0  0
    6.1730   -1.8040   27.3140 C   0  0  0  0  0  0  0  0  0  0  0  0
    6.8970   -1.8510   28.4270 C   0  0  0  0  0  0  0  0  0  0  0  0
    7.2570   -0.7570   29.2950 C   0  0  0  0  0  0  0  0  0  0  0  0
    6.6340    0.5060   28.6790 C   0  0  0  0  0  0  0  0  0  0  0  0
    5.8490    0.8320   27.5470 C   0  0  0  0  0  0  0  0  0  0  0  0
    5.6770   -0.5860   26.8840 C   0  0  0  0  0  0  0  0  0  0  0  0
    4.9580   -0.6440   25.7650 N   0  0  0  0  0  0  0  0  0  0  0  0
    3.7690   -1.0150   25.8330 O   0  0  0  0  0  0  0  0  0  0  0  0
    5.2080    0.3430   24.8520 O   0  0  0  0  0  0  0  0  0  0  0  0
    6.8690   -2.5870   23.2780 C   0  0  0  0  0  0  0  0  0  0  0  0
    7.7310   -3.1760   22.1860 C   0  0  0  0  0  0  0  0  0  0  0  0
  1  2  1  0
  2  3  2  0
  2  4  1  0
  4  5  1  0
  5  6  1  0
  6  7  1  0
  7  8  1  0
  8  9  2  0
  8 10  1  0
 10 11  1  0
 11 12  2  0
 12 13  1  0
 13 14  2  0
 14 15  1  0
 14 16  1  0
 11 17  1  0
 16 17  2  0
 17 18  1  0
 10 19  1  0
 19 20  2  0
 20 21  1  0
 21 22  2  0
 22 23  1  0
 19 24  1  0
 23 24  2  0
 24 25  1  0
 25 26  2  0
 25 27  1  0
  7 28  1  0
  4 29  1  0
 28 29  1  0
M  CHG  2  25   1  27  -1
M  END
