piperidine-amides-19839-covalent
     RDKit          3D

 21 22  0  0  0  0  0  0  0  0999 V2000
    7.0170   -3.3510   19.3120 C   0  0  0  0  0  0  0  0  0  0  0  0
    6.3260   -4.2140   20.3090 C   0  0  0  0  0  0  0  0  0  0  0  0
    5.3120   -4.7930   19.9480 O   0  0  0  0  0  0  0  0  0  0  0  0
    6.8520   -4.3700   21.5880 N   0  0  0  0  0  0  0  0  0  0  0  0
    6.6350   -5.5850   22.3420 C   0  0  0  0  0  0  0  0  0  0  0  0
    5.9380   -5.2890   23.6500 C   0  0  0  0  0  0  0  0  0  0  0  0
    5.9790   -3.7910   23.9460 C   0  0  0  0  0  0  0  0  0  0  0  0
    5.6280   -3.4870   25.3560 C   0  0  0  0  0  0  0  0  0  0  0  0
    4.5910   -2.8480   25.5630 O   0  0  0  0  0  0  0  0  0  0  0  0
    6.4070   -3.8850   26.4720 N   0  0  0  0  0  0  0  0  0  0  0  0
    6.0720   -3.2040   27.7120 C   0  0  0  0  0  0  0  0  0  0  0  0
    5.1110   -4.0980   28.4620 C   0  0  0  0  0  0  0  0  0  0  0  0
    5.5850   -5.4580   28.2170 N   0  0  0  0  0  0  0  0  0  0  0  0
    4.8970   -6.3360   29.1740 C   0  0  0  0  0  0  0  0  0  0  0  0
    4.5430   -7.5380   28.5960 F   0  0  0  0  0  0  0  0  0  0  0  0
    3.8560   -5.7220   29.8690 F   0  0  0  0  0  0  0  0  0  0  0  0
    5.8090   -6.7250   30.2190 F   0  0  0  0  0  0  0  0  0  0  0  0
    7.0100   -5.4630   27.9740 C   0  0  0  0  0  0  0  0  0  0  0  0
    7.0710   -5.1300   26.6450 C   0  0  0  0  0  0  0  0  0  0  0  0
    7.3530   -3.2850   23.6420 C   0  0  0  0  0  0  0  0  0  0  0  0
    7.5530   -3.2920   22.1820 C   0  0  0  0  0  0  0  0  0  0  0  0
  1  2  1  0
  2  3  2  0
  2  4  1  0
  4  5  1  0
  5  6  1  0
  6  7  1  0
  7  8  1  0
  8  9  2  0
  8 10  1  0
 10 11  1  0
 11 12  1  0
 12 13  1  0
 13 14  1  0
 14 15  1  0
 14 16  1  0
 14 17  1  0
 13 18  1  0
 10 19  1  0
 18 19  1  0
  7 20  1  0
  4 21  1  0
 20 21  1  0
M  END
