piperidine-amides-24288-covalent
     RDKit          3D

 23 24  0  0  0  0  0  0  0  0999 V2000
    7.0360   -3.3750   19.4380 C   0  0  0  0  0  0  0  0  0  0  0  0
    6.3400   -4.2390   20.4050 C   0  0  0  0  0  0  0  0  0  0  0  0
    5.4020   -4.9680   20.0110 O   0  0  0  0  0  0  0  0  0  0  0  0
    6.7500   -4.2720   21.7550 N   0  0  0  0  0  0  0  0  0  0  0  0
    6.6320   -5.5230   22.4940 C   0  0  0  0  0  0  0  0  0  0  0  0
    6.0860   -5.2220   23.9150 C   0  0  0  0  0  0  0  0  0  0  0  0
    6.1300   -3.7230   24.0830 C   0  0  0  0  0  0  0  0  0  0  0  0
    5.5880   -3.2250   25.3830 C   0  0  0  0  0  0  0  0  0  0  0  0
    5.0990   -2.0810   25.3590 O   0  0  0  0  0  0  0  0  0  0  0  0
    5.5510   -3.9570   26.6070 N   0  0  0  0  0  0  0  0  0  0  0  0
    6.3650   -3.5380   27.6780 C   0  0  0  0  0  0  0  0  0  0  0  0
    6.6580   -4.7850   28.5070 C   0  0  0  0  0  0  0  0  0  0  0  0
    5.4200   -4.9640   29.1880 N   0  0  0  0  0  0  0  0  0  0  0  0
    5.0570   -6.1080   30.0230 C   0  0  0  0  0  0  0  0  0  0  0  0
    4.1350   -6.8830   29.3520 C   0  0  0  0  0  0  0  0  0  0  0  0
    2.8510   -7.0950   29.8770 C   0  0  0  0  0  0  0  0  0  0  0  0
    2.8390   -8.0110   30.9110 F   0  0  0  0  0  0  0  0  0  0  0  0
    2.0150   -7.5560   28.8920 F   0  0  0  0  0  0  0  0  0  0  0  0
    2.3010   -5.9340   30.3880 F   0  0  0  0  0  0  0  0  0  0  0  0
    4.2640   -4.3820   28.6320 C   0  0  0  0  0  0  0  0  0  0  0  0
    4.2020   -4.2380   27.1080 C   0  0  0  0  0  0  0  0  0  0  0  0
    7.4630   -3.1690   23.7320 C   0  0  0  0  0  0  0  0  0  0  0  0
    7.6710   -3.2570   22.2630 C   0  0  0  0  0  0  0  0  0  0  0  0
  1  2  1  0
  2  3  2  0
  2  4  1  0
  4  5  1  0
  5  6  1  0
  6  7  1  0
  7  8  1  0
  8  9  2  0
  8 10  1  0
 10 11  1  0
 11 12  1  0
 12 13  1  0
 13 14  1  0
 14 15  1  0
 15 16  1  0
 16 17  1  0
 16 18  1  0
 16 19  1  0
 13 20  1  0
 10 21  1  0
 20 21  1  0
  7 22  1  0
  4 23  1  0
 22 23  1  0
M  END
