piperidine-amides-25867-covalent
     RDKit          3D

 25 27  0  0  0  0  0  0  0  0999 V2000
    7.0340   -3.3560   19.3870 C   0  0  0  0  0  0  0  0  0  0  0  0
    6.3890   -4.2480   20.3890 C   0  0  0  0  0  0  0  0  0  0  0  0
    5.4280   -4.9120   19.9990 O   0  0  0  0  0  0  0  0  0  0  0  0
    6.9000   -4.3340   21.6960 N   0  0  0  0  0  0  0  0  0  0  0  0
    6.7020   -5.5290   22.4950 C   0  0  0  0  0  0  0  0  0  0  0  0
    6.1340   -5.1640   23.8470 C   0  0  0  0  0  0  0  0  0  0  0  0
    6.1700   -3.6470   23.9840 C   0  0  0  0  0  0  0  0  0  0  0  0
    5.5780   -3.1700   25.2570 C   0  0  0  0  0  0  0  0  0  0  0  0
    4.9230   -2.1300   25.2200 O   0  0  0  0  0  0  0  0  0  0  0  0
    5.6710   -3.8100   26.5080 N   0  0  0  0  0  0  0  0  0  0  0  0
    4.3890   -4.0650   27.0800 C   0  0  0  0  0  0  0  0  0  0  0  0
    4.5170   -5.0160   28.2500 C   0  0  0  0  0  0  0  0  0  0  0  0
    5.7030   -4.7120   29.0390 N   0  0  0  0  0  0  0  0  0  0  0  0
    6.0960   -6.0450   29.4950 C   0  0  0  0  0  0  0  0  0  0  0  0
    6.9660   -6.8380   29.0700 O   0  0  0  0  0  0  0  0  0  0  0  0
    5.3480   -6.4470   30.5620 C   0  0  0  0  0  0  0  0  0  0  0  0
    5.7010   -7.5690   31.3580 C   0  0  0  0  0  0  0  0  0  0  0  0
    4.9510   -7.9720   32.4440 N   0  0  0  0  0  0  0  0  0  0  0  0
    3.7920   -7.1310   32.6600 C   0  0  0  0  0  0  0  0  0  0  0  0
    3.4940   -6.0070   31.8050 C   0  0  0  0  0  0  0  0  0  0  0  0
    4.2470   -5.6710   30.7840 N   0  0  0  0  0  0  0  0  0  0  0  0
    6.7760   -3.8460   28.6570 C   0  0  0  0  0  0  0  0  0  0  0  0
    6.4720   -3.0760   27.4130 C   0  0  0  0  0  0  0  0  0  0  0  0
    7.5150   -3.0860   23.6730 C   0  0  0  0  0  0  0  0  0  0  0  0
    7.7470   -3.2540   22.1890 C   0  0  0  0  0  0  0  0  0  0  0  0
  1  2  1  0
  2  3  2  0
  2  4  1  0
  4  5  1  0
  5  6  1  0
  6  7  1  0
  7  8  1  0
  8  9  2  0
  8 10  1  0
 10 11  1  0
 11 12  1  0
 12 13  1  0
 13 14  1  0
 14 15  2  0
 14 16  1  0
 16 17  2  0
 17 18  1  0
 18 19  2  0
 19 20  1  0
 16 21  1  0
 20 21  2  0
 13 22  1  0
 10 23  1  0
 22 23  1  0
  7 24  1  0
  4 25  1  0
 24 25  1  0
M  END
