piperidine-amides-2517-covalent
     RDKit          3D

 26 28  0  0  0  0  0  0  0  0999 V2000
    7.0830   -3.3210   19.2700 C   0  0  0  0  0  0  0  0  0  0  0  0
    6.3310   -4.0960   20.2840 C   0  0  0  0  0  0  0  0  0  0  0  0
    5.2980   -4.6490   19.9190 O   0  0  0  0  0  0  0  0  0  0  0  0
    6.8380   -4.2070   21.5760 N   0  0  0  0  0  0  0  0  0  0  0  0
    7.6850   -3.1910   22.1490 C   0  0  0  0  0  0  0  0  0  0  0  0
    7.0430   -2.6700   23.3920 C   0  0  0  0  0  0  0  0  0  0  0  0
    6.5830   -3.8610   24.2130 C   0  0  0  0  0  0  0  0  0  0  0  0
    5.8040   -3.3490   25.3590 C   0  0  0  0  0  0  0  0  0  0  0  0
    4.5820   -3.1760   25.2330 O   0  0  0  0  0  0  0  0  0  0  0  0
    6.4200   -3.0600   26.5930 N   0  0  0  0  0  0  0  0  0  0  0  0
    6.3660   -1.6840   27.0470 C   0  0  0  0  0  0  0  0  0  0  0  0
    6.8510   -1.4610   28.4620 C   0  0  0  0  0  0  0  0  0  0  0  0
    6.9110   -0.2860   29.1830 C   0  0  0  0  0  0  0  0  0  0  0  0
    7.4920   -0.1650   30.8230 Cl  0  0  0  0  0  0  0  0  0  0  0  0
    6.4640    0.8230   28.5020 C   0  0  0  0  0  0  0  0  0  0  0  0
    6.0050    0.7430   27.2150 C   0  0  0  0  0  0  0  0  0  0  0  0
    5.9460   -0.5380   26.4450 C   0  0  0  0  0  0  0  0  0  0  0  0
    5.4780   -0.5370   25.1840 N   0  0  0  0  0  0  0  0  0  0  0  0
    5.4510    0.7220   24.6870 C   0  0  0  0  0  0  0  0  0  0  0  0
    6.5890    1.6300   24.2290 C   0  0  0  0  0  0  0  0  0  0  0  0
    6.1980    2.9910   23.7230 C   0  0  0  0  0  0  0  0  0  0  0  0
    4.7710    3.3760   23.6920 C   0  0  0  0  0  0  0  0  0  0  0  0
    3.7230    2.4150   24.1620 C   0  0  0  0  0  0  0  0  0  0  0  0
    4.1060    1.0770   24.6610 C   0  0  0  0  0  0  0  0  0  0  0  0
    5.7100   -4.8070   23.3910 C   0  0  0  0  0  0  0  0  0  0  0  0
    6.5130   -5.3510   22.4080 C   0  0  0  0  0  0  0  0  0  0  0  0
  1  2  1  0
  2  3  2  0
  2  4  1  0
  4  5  1  0
  5  6  1  0
  6  7  1  0
  7  8  1  0
  8  9  2  0
  8 10  1  0
 10 11  1  0
 11 12  2  0
 12 13  1  0
 13 14  1  0
 13 15  2  0
 15 16  1  0
 11 17  1  0
 16 17  2  0
 17 18  1  0
 18 19  1  0
 19 20  2  0
 20 21  1  0
 21 22  2  0
 22 23  1  0
 19 24  1  0
 23 24  2  0
  7 25  1  0
  4 26  1  0
 25 26  1  0
M  END
