piperidine-amides-33241-covalent
     RDKit          3D

 28 30  0  0  0  0  0  0  0  0999 V2000
    7.0330   -3.3860   19.3620 C   0  0  0  0  0  0  0  0  0  0  0  0
    6.3880   -4.2620   20.3540 C   0  0  0  0  0  0  0  0  0  0  0  0
    5.3550   -4.8650   19.9810 O   0  0  0  0  0  0  0  0  0  0  0  0
    6.9430   -4.4600   21.6440 N   0  0  0  0  0  0  0  0  0  0  0  0
    6.4860   -5.5750   22.4090 C   0  0  0  0  0  0  0  0  0  0  0  0
    5.8380   -5.2240   23.6810 C   0  0  0  0  0  0  0  0  0  0  0  0
    5.8770   -3.7810   23.9900 C   0  0  0  0  0  0  0  0  0  0  0  0
    5.3050   -3.4080   25.3370 C   0  0  0  0  0  0  0  0  0  0  0  0
    4.5330   -2.4400   25.3960 O   0  0  0  0  0  0  0  0  0  0  0  0
    5.5850   -4.0900   26.5410 N   0  0  0  0  0  0  0  0  0  0  0  0
    6.8630   -4.2810   27.0710 C   0  0  0  0  0  0  0  0  0  0  0  0
    7.3030   -5.3910   27.9520 C   0  0  0  0  0  0  0  0  0  0  0  0
    6.3060   -5.4300   29.0830 C   0  0  0  0  0  0  0  0  0  0  0  0
    5.1110   -5.5100   28.4800 C   0  0  0  0  0  0  0  0  0  0  0  0
    4.2060   -6.4500   29.3350 C   0  0  0  0  0  0  0  0  0  0  0  0
    2.7920   -6.6690   28.7530 C   0  0  0  0  0  0  0  0  0  0  0  0
    1.6330   -7.7080   29.5390 S   0  0  0  0  0  0  0  0  0  0  0  0
    0.3310   -6.9790   29.7200 O   0  0  0  0  0  0  0  0  0  0  0  0
    2.1620   -8.0440   30.8880 O   0  0  0  0  0  0  0  0  0  0  0  0
    1.2770   -9.0120   28.7710 N   0  0  0  0  0  0  0  0  0  0  0  0
    0.4340   -8.9060   27.7310 C   0  0  0  0  0  0  0  0  0  0  0  0
    0.7610   -9.8170   26.5660 C   0  0  0  0  0  0  0  0  0  0  0  0
    1.9790   -9.3080   25.8030 C   0  0  0  0  0  0  0  0  0  0  0  0
    2.5050   -5.9110   27.4320 C   0  0  0  0  0  0  0  0  0  0  0  0
    3.4400   -5.0530   26.7250 C   0  0  0  0  0  0  0  0  0  0  0  0
    4.6570   -4.9110   27.2670 C   0  0  0  0  0  0  0  0  0  0  0  0
    7.2050   -3.2040   23.7170 C   0  0  0  0  0  0  0  0  0  0  0  0
    7.6060   -3.3470   22.2760 C   0  0  0  0  0  0  0  0  0  0  0  0
  1  2  1  0
  2  3  2  0
  2  4  1  0
  4  5  1  0
  5  6  1  0
  6  7  1  0
  7  8  1  0
  8  9  2  0
  8 10  1  0
 10 11  1  0
 11 12  1  0
 12 13  1  0
 13 14  1  0
 14 15  2  0
 15 16  1  0
 16 17  1  0
 17 18  2  0
 17 19  2  0
 17 20  1  0
 20 21  1  0
 21 22  1  0
 22 23  1  0
 16 24  2  0
 24 25  1  0
 10 26  1  0
 14 26  1  0
 25 26  2  0
  7 27  1  0
  4 28  1  0
 27 28  1  0
M  END
