piperidine-amides-5139-covalent
     RDKit          3D

 22 23  0  0  0  0  0  0  0  0999 V2000
    7.0560   -3.2860   19.1700 C   0  0  0  0  0  0  0  0  0  0  0  0
    6.3090   -4.0380   20.2100 C   0  0  0  0  0  0  0  0  0  0  0  0
    5.2270   -4.5340   19.8620 O   0  0  0  0  0  0  0  0  0  0  0  0
    6.8180   -4.2280   21.5030 N   0  0  0  0  0  0  0  0  0  0  0  0
    7.5720   -3.2060   22.1240 C   0  0  0  0  0  0  0  0  0  0  0  0
    7.2520   -3.1300   23.5310 C   0  0  0  0  0  0  0  0  0  0  0  0
    5.9010   -3.5950   23.8660 C   0  0  0  0  0  0  0  0  0  0  0  0
    5.6170   -3.3950   25.3130 C   0  0  0  0  0  0  0  0  0  0  0  0
    4.4560   -3.0890   25.6380 O   0  0  0  0  0  0  0  0  0  0  0  0
    6.6220   -3.5290   26.2890 N   0  0  0  0  0  0  0  0  0  0  0  0
    6.4000   -4.2150   27.5900 C   0  0  0  0  0  0  0  0  0  0  0  0
    6.4280   -5.7000   27.4720 C   0  0  0  0  0  0  0  0  0  0  0  0
    5.1330   -6.3700   27.5760 C   0  0  0  0  0  0  0  0  0  0  0  0
    4.4100   -6.7530   26.4720 C   0  0  0  0  0  0  0  0  0  0  0  0
    3.1860   -7.3740   26.4840 C   0  0  0  0  0  0  0  0  0  0  0  0
    2.6300   -7.6370   27.6960 C   0  0  0  0  0  0  0  0  0  0  0  0
    1.4040   -8.2480   27.8110 F   0  0  0  0  0  0  0  0  0  0  0  0
    3.3270   -7.2730   28.8180 C   0  0  0  0  0  0  0  0  0  0  0  0
    2.6280   -7.6110   29.9440 F   0  0  0  0  0  0  0  0  0  0  0  0
    4.5500   -6.6550   28.7920 C   0  0  0  0  0  0  0  0  0  0  0  0
    5.6820   -5.0290   23.4300 C   0  0  0  0  0  0  0  0  0  0  0  0
    6.5760   -5.4160   22.2970 C   0  0  0  0  0  0  0  0  0  0  0  0
  1  2  1  0
  2  3  2  0
  2  4  1  0
  4  5  1  0
  5  6  1  0
  6  7  1  0
  7  8  1  0
  8  9  2  0
  8 10  1  0
 10 11  1  0
 11 12  1  0
 12 13  1  0
 13 14  2  0
 14 15  1  0
 15 16  2  0
 16 17  1  0
 16 18  1  0
 18 19  1  0
 13 20  1  0
 18 20  2  0
  7 21  1  0
  4 22  1  0
 21 22  1  0
M  END
