piperidine-amides-1778-covalent
     RDKit          3D

 19 20  0  0  0  0  0  0  0  0999 V2000
    7.0540   -3.3320   19.3580 C   0  0  0  0  0  0  0  0  0  0  0  0
    6.3010   -4.1390   20.3590 C   0  0  0  0  0  0  0  0  0  0  0  0
    5.3210   -4.7920   19.9630 O   0  0  0  0  0  0  0  0  0  0  0  0
    6.7300   -4.1940   21.7100 N   0  0  0  0  0  0  0  0  0  0  0  0
    7.7330   -3.2820   22.2330 C   0  0  0  0  0  0  0  0  0  0  0  0
    7.1950   -2.6960   23.5280 C   0  0  0  0  0  0  0  0  0  0  0  0
    6.0840   -3.5900   23.9330 C   0  0  0  0  0  0  0  0  0  0  0  0
    5.6230   -3.3140   25.3170 C   0  0  0  0  0  0  0  0  0  0  0  0
    4.4200   -3.4890   25.5670 O   0  0  0  0  0  0  0  0  0  0  0  0
    6.5380   -2.8580   26.2690 N   0  0  0  0  0  0  0  0  0  0  0  0
    6.4680   -1.6520   27.0260 C   0  0  0  0  0  0  0  0  0  0  0  0
    5.9620   -0.4390   26.5930 C   0  0  0  0  0  0  0  0  0  0  0  0
    5.9150    0.7330   27.3980 C   0  0  0  0  0  0  0  0  0  0  0  0
    6.3760    0.7720   28.7020 C   0  0  0  0  0  0  0  0  0  0  0  0
    6.4200    1.7440   29.6050 O   0  0  0  0  0  0  0  0  0  0  0  0
    6.9300   -0.4960   29.2100 C   0  0  0  0  0  0  0  0  0  0  0  0
    6.9620   -1.7240   28.3270 C   0  0  0  0  0  0  0  0  0  0  0  0
    6.3650   -5.0560   23.7870 C   0  0  0  0  0  0  0  0  0  0  0  0
    6.4140   -5.3970   22.4410 C   0  0  0  0  0  0  0  0  0  0  0  0
  1  2  1  0
  2  3  2  0
  2  4  1  0
  4  5  1  0
  5  6  1  0
  6  7  1  0
  7  8  1  0
  8  9  2  0
  8 10  1  0
 10 11  1  0
 11 12  2  0
 12 13  1  0
 13 14  2  0
 14 15  1  0
 14 16  1  0
 11 17  1  0
 16 17  2  0
  7 18  1  0
  4 19  1  0
 18 19  1  0
M  END
