piperidine-amides-25483-covalent
     RDKit          3D

 25 27  0  0  0  0  0  0  0  0999 V2000
    7.0820   -3.3570   19.3810 C   0  0  0  0  0  0  0  0  0  0  0  0
    6.3700   -4.1990   20.3720 C   0  0  0  0  0  0  0  0  0  0  0  0
    5.3780   -4.8120   19.9760 O   0  0  0  0  0  0  0  0  0  0  0  0
    6.8660   -4.3020   21.6790 N   0  0  0  0  0  0  0  0  0  0  0  0
    6.7150   -5.5160   22.4440 C   0  0  0  0  0  0  0  0  0  0  0  0
    6.2260   -5.1910   23.8330 C   0  0  0  0  0  0  0  0  0  0  0  0
    6.2240   -3.6740   24.0240 C   0  0  0  0  0  0  0  0  0  0  0  0
    5.7130   -3.3070   25.3670 C   0  0  0  0  0  0  0  0  0  0  0  0
    4.5840   -2.8040   25.4180 O   0  0  0  0  0  0  0  0  0  0  0  0
    6.4060   -3.5020   26.5840 N   0  0  0  0  0  0  0  0  0  0  0  0
    6.3060   -2.4060   27.4800 C   0  0  0  0  0  0  0  0  0  0  0  0
    5.1050   -2.8840   28.0820 C   0  0  0  0  0  0  0  0  0  0  0  0
    5.1970   -4.1470   28.3960 C   0  0  0  0  0  0  0  0  0  0  0  0
    4.4640   -4.7270   29.5060 C   0  0  0  0  0  0  0  0  0  0  0  0
    4.5640   -6.0720   29.8950 C   0  0  0  0  0  0  0  0  0  0  0  0
    4.0300   -7.0370   30.9220 C   0  0  0  0  0  0  0  0  0  0  0  0
    2.7860   -7.6170   30.8420 O   0  0  0  0  0  0  0  0  0  0  0  0
    4.9590   -7.1830   31.8700 N   0  0  0  0  0  0  0  0  0  0  0  0
    5.9830   -7.7370   31.2280 C   0  0  0  0  0  0  0  0  0  0  0  0
    4.1940   -8.2120   32.5230 C   0  0  0  0  0  0  0  0  0  0  0  0
    5.5000   -6.7740   29.0380 C   0  0  0  0  0  0  0  0  0  0  0  0
    5.6540   -5.5500   28.3660 C   0  0  0  0  0  0  0  0  0  0  0  0
    6.2410   -4.8160   27.3420 C   0  0  0  0  0  0  0  0  0  0  0  0
    7.5910   -3.1320   23.7040 C   0  0  0  0  0  0  0  0  0  0  0  0
    7.7480   -3.2700   22.2150 C   0  0  0  0  0  0  0  0  0  0  0  0
  1  2  1  0
  2  3  2  0
  2  4  1  0
  4  5  1  0
  5  6  1  0
  6  7  1  0
  7  8  1  0
  8  9  2  0
  8 10  1  0
 10 11  1  0
 11 12  1  0
 12 13  1  0
 13 14  1  0
 14 15  2  0
 15 16  1  0
 16 17  2  0
 16 18  1  0
 18 19  1  0
 18 20  1  0
 15 21  1  0
 21 22  2  0
 10 23  1  0
 13 23  2  0
 22 23  1  0
  7 24  1  0
  4 25  1  0
 24 25  1  0
M  END
