piperidine-amides-23663-covalent
     RDKit          3D

 23 25  0  0  0  0  0  0  0  0999 V2000
    7.0480   -3.3510   19.3080 C   0  0  0  0  0  0  0  0  0  0  0  0
    6.3700   -4.1830   20.3180 C   0  0  0  0  0  0  0  0  0  0  0  0
    5.3210   -4.7630   19.9560 O   0  0  0  0  0  0  0  0  0  0  0  0
    6.9060   -4.3700   21.6150 N   0  0  0  0  0  0  0  0  0  0  0  0
    7.6020   -3.3050   22.2300 C   0  0  0  0  0  0  0  0  0  0  0  0
    7.2630   -3.2040   23.6230 C   0  0  0  0  0  0  0  0  0  0  0  0
    5.9260   -3.6780   23.9290 C   0  0  0  0  0  0  0  0  0  0  0  0
    5.4770   -3.2720   25.3060 C   0  0  0  0  0  0  0  0  0  0  0  0
    4.2810   -2.9770   25.4730 O   0  0  0  0  0  0  0  0  0  0  0  0
    6.3420   -3.2110   26.4170 N   0  0  0  0  0  0  0  0  0  0  0  0
    6.6460   -4.3120   27.2630 C   0  0  0  0  0  0  0  0  0  0  0  0
    6.3960   -1.8990   27.0810 C   0  0  0  0  0  0  0  0  0  0  0  0
    6.9750   -1.6990   28.5240 C   0  0  0  0  0  0  0  0  0  0  0  0
    7.1130   -0.5570   29.3350 C   0  0  0  0  0  0  0  0  0  0  0  0
    6.5740    0.6660   28.5930 C   0  0  0  0  0  0  0  0  0  0  0  0
    6.5960    1.9710   29.2010 N   0  0  0  0  0  0  0  0  0  0  0  0
    6.0040    2.8470   28.1710 C   0  0  0  0  0  0  0  0  0  0  0  0
    5.9320    4.3120   28.6190 C   0  0  0  0  0  0  0  0  0  0  0  0
    5.4850    2.1610   26.6580 S   0  0  0  0  0  0  0  0  0  0  0  0
    6.0140    0.5920   27.2400 C   0  0  0  0  0  0  0  0  0  0  0  0
    5.8800   -0.6340   26.3990 C   0  0  0  0  0  0  0  0  0  0  0  0
    5.8400   -5.1980   23.7160 C   0  0  0  0  0  0  0  0  0  0  0  0
    6.4490   -5.5530   22.3820 C   0  0  0  0  0  0  0  0  0  0  0  0
  1  2  1  0
  2  3  2  0
  2  4  1  0
  4  5  1  0
  5  6  1  0
  6  7  1  0
  7  8  1  0
  8  9  2  0
  8 10  1  0
 10 11  1  0
 10 12  1  0
 12 13  2  0
 13 14  1  0
 14 15  2  0
 15 16  1  0
 16 17  2  0
 17 18  1  0
 17 19  1  0
 15 20  1  0
 19 20  1  0
 12 21  1  0
 20 21  2  0
  7 22  1  0
  4 23  1  0
 22 23  1  0
M  END
