piperidine-amides-8914-covalent
     RDKit          3D

 22 24  0  0  0  0  0  0  0  0999 V2000
    7.0580   -3.3560   19.3680 C   0  0  0  0  0  0  0  0  0  0  0  0
    6.4340   -4.2230   20.3620 C   0  0  0  0  0  0  0  0  0  0  0  0
    5.4340   -4.8780   20.0010 O   0  0  0  0  0  0  0  0  0  0  0  0
    6.9950   -4.3420   21.6690 N   0  0  0  0  0  0  0  0  0  0  0  0
    7.6390   -3.2050   22.2500 C   0  0  0  0  0  0  0  0  0  0  0  0
    6.7060   -2.6170   23.2640 C   0  0  0  0  0  0  0  0  0  0  0  0
    6.4550   -3.6570   24.3370 C   0  0  0  0  0  0  0  0  0  0  0  0
    5.5290   -3.0590   25.3670 C   0  0  0  0  0  0  0  0  0  0  0  0
    4.3790   -2.8730   24.9800 O   0  0  0  0  0  0  0  0  0  0  0  0
    5.9770   -2.7510   26.6610 N   0  0  0  0  0  0  0  0  0  0  0  0
    6.7870   -1.6120   26.9620 C   0  0  2  0  0  0  0  0  0  0  0  0
    7.2740   -1.5710   28.3120 C   0  0  0  0  0  0  0  0  0  0  0  0
    6.6150   -0.9500   29.2830 C   0  0  1  0  0  0  0  0  0  0  0  0
    7.2510   -0.2650   30.3060 C   0  0  0  0  0  0  0  0  0  0  0  0
    5.9560    0.0980   28.4440 C   0  0  0  0  0  0  0  0  0  0  0  0
    5.2850    1.4240   29.1880 C   0  0  0  0  0  0  0  0  0  0  0  0
    4.7580    2.1850   28.1080 C   0  0  0  0  0  0  0  0  0  0  0  0
    5.4860    0.9640   28.5200 C   0  0  0  0  0  0  0  0  0  0  0  0
    5.4150    0.8430   27.1120 C   0  0  0  0  0  0  0  0  0  0  0  0
    6.0080   -0.2580   26.8260 C   0  0  0  0  0  0  0  0  0  0  0  0
    5.7490   -4.8410   23.7050 C   0  0  0  0  0  0  0  0  0  0  0  0
    6.4900   -5.3910   22.5060 C   0  0  0  0  0  0  0  0  0  0  0  0
  1  2  1  0
  2  3  2  0
  2  4  1  0
  4  5  1  0
  5  6  1  0
  6  7  1  0
  7  8  1  0
  8  9  2  0
  8 10  1  0
 11 10  1  1
 11 12  1  0
 12 13  1  0
 13 14  1  1
 13 15  1  0
 15 16  1  0
 16 17  2  0
 17 18  1  0
 18 19  2  0
 11 20  1  0
 15 20  2  0
 19 20  1  0
  7 21  1  0
  4 22  1  0
 21 22  1  0
M  END
