piperidine-amides-30633-covalent
     RDKit          3D

 26 28  0  0  0  0  0  0  0  0999 V2000
    7.0090   -3.3650   19.4710 C   0  0  0  0  0  0  0  0  0  0  0  0
    6.3710   -4.2510   20.4520 C   0  0  0  0  0  0  0  0  0  0  0  0
    5.4480   -4.9760   20.0240 O   0  0  0  0  0  0  0  0  0  0  0  0
    6.7730   -4.3490   21.8210 N   0  0  0  0  0  0  0  0  0  0  0  0
    6.6630   -5.5920   22.5580 C   0  0  0  0  0  0  0  0  0  0  0  0
    6.0720   -5.2180   23.8940 C   0  0  0  0  0  0  0  0  0  0  0  0
    5.8950   -3.7360   23.9840 C   0  0  0  0  0  0  0  0  0  0  0  0
    5.0440   -3.2260   25.1480 C   0  0  0  0  0  0  0  0  0  0  0  0
    3.8110   -3.1270   24.9170 O   0  0  0  0  0  0  0  0  0  0  0  0
    5.3650   -2.8210   26.4930 N   0  0  0  0  0  0  0  0  0  0  0  0
    4.3800   -2.8870   27.5600 C   0  0  0  0  0  0  0  0  0  0  0  0
    4.4680   -4.2720   28.0350 C   0  0  0  0  0  0  0  0  0  0  0  0
    5.4380   -4.4270   28.9420 N   0  0  0  0  0  0  0  0  0  0  0  0
    5.5480   -5.9430   29.3740 S   0  0  0  0  0  0  0  0  0  0  0  0
    6.9440   -6.3570   29.1570 O   0  0  0  0  0  0  0  0  0  0  0  0
    5.2200   -6.0460   30.8460 O   0  0  0  0  0  0  0  0  0  0  0  0
    4.3510   -6.7410   28.3220 C   0  0  0  0  0  0  0  0  0  0  0  0
    4.8320   -6.7080   26.8970 C   0  0  0  0  0  0  0  0  0  0  0  0
    3.9300   -7.3300   25.8550 C   0  0  0  0  0  0  0  0  0  0  0  0
    2.6740   -7.9030   26.3940 C   0  0  0  0  0  0  0  0  0  0  0  0
    2.3160   -7.8900   27.7200 C   0  0  0  0  0  0  0  0  0  0  0  0
    3.1500   -7.3100   28.6950 C   0  0  0  0  0  0  0  0  0  0  0  0
    6.4600   -4.2330   28.0620 C   0  0  0  0  0  0  0  0  0  0  0  0
    6.6080   -3.0230   27.0680 C   0  0  0  0  0  0  0  0  0  0  0  0
    7.2640   -3.1120   23.6490 C   0  0  0  0  0  0  0  0  0  0  0  0
    7.4760   -3.1860   22.4320 C   0  0  0  0  0  0  0  0  0  0  0  0
  1  2  1  0
  2  3  2  0
  2  4  1  0
  4  5  1  0
  5  6  1  0
  6  7  1  0
  7  8  1  0
  8  9  2  0
  8 10  1  0
 10 11  1  0
 11 12  1  0
 12 13  1  0
 13 14  1  0
 14 15  2  0
 14 16  2  0
 14 17  1  0
 17 18  2  0
 18 19  1  0
 19 20  2  0
 20 21  1  0
 17 22  1  0
 21 22  2  0
 13 23  1  0
 10 24  1  0
 23 24  1  0
  7 25  1  0
  4 26  1  0
 25 26  1  0
M  END
