piperidine-amides-13672-covalent
     RDKit          3D

 28 30  0  0  0  0  0  0  0  0999 V2000
    7.0500   -3.3240   19.3190 C   0  0  0  0  0  0  0  0  0  0  0  0
    6.3650   -4.1740   20.3330 C   0  0  0  0  0  0  0  0  0  0  0  0
    5.3770   -4.8420   19.9800 O   0  0  0  0  0  0  0  0  0  0  0  0
    6.8730   -4.2360   21.6490 N   0  0  0  0  0  0  0  0  0  0  0  0
    7.7190   -3.1830   22.1840 C   0  0  0  0  0  0  0  0  0  0  0  0
    7.5460   -3.1640   23.7020 C   0  0  0  0  0  0  0  0  0  0  0  0
    6.1640   -3.6420   23.9650 C   0  0  0  0  0  0  0  0  0  0  0  0
    5.6300   -3.3050   25.3020 C   0  0  0  0  0  0  0  0  0  0  0  0
    4.4180   -3.4780   25.4640 O   0  0  0  0  0  0  0  0  0  0  0  0
    6.4620   -2.8010   26.3060 N   0  0  0  0  0  0  0  0  0  0  0  0
    6.3270   -1.5440   26.9520 C   0  0  0  0  0  0  0  0  0  0  0  0
    5.7810   -0.3520   26.6530 C   0  0  0  0  0  0  0  0  0  0  0  0
    5.7810    0.7930   27.5220 C   0  0  0  0  0  0  0  0  0  0  0  0
    5.9750    1.6360   28.5880 C   0  0  0  0  0  0  0  0  0  0  0  0
    6.9480    2.5170   28.8000 O   0  0  0  0  0  0  0  0  0  0  0  0
    5.0140    1.6350   29.5680 O   0  0  0  0  0  0  0  0  0  0  0  0
    3.6720    1.1940   29.3510 C   0  0  0  0  0  0  0  0  0  0  0  0
    6.5480   -0.0420   28.5720 N   0  0  0  0  0  0  0  0  0  0  0  0
    6.9100    0.5750   29.8300 C   0  0  0  0  0  0  0  0  0  0  0  0
    6.0780    0.0920   31.0220 C   0  0  0  0  0  0  0  0  0  0  0  0
    6.4010    0.4910   32.2570 C   0  0  0  0  0  0  0  0  0  0  0  0
    5.7360    0.1430   33.4970 C   0  0  0  0  0  0  0  0  0  0  0  0
    4.5630   -0.7890   33.1450 C   0  0  0  0  0  0  0  0  0  0  0  0
    4.0130   -1.3530   31.9770 C   0  0  0  0  0  0  0  0  0  0  0  0
    4.9980   -0.7390   30.9260 C   0  0  0  0  0  0  0  0  0  0  0  0
    6.8800   -1.4110   28.2670 C   0  0  0  0  0  0  0  0  0  0  0  0
    6.0780   -5.1350   23.7600 C   0  0  0  0  0  0  0  0  0  0  0  0
    6.6540   -5.4650   22.4250 C   0  0  0  0  0  0  0  0  0  0  0  0
  1  2  1  0
  2  3  2  0
  2  4  1  0
  4  5  1  0
  5  6  1  0
  6  7  1  0
  7  8  1  0
  8  9  2  0
  8 10  1  0
 10 11  1  0
 11 12  1  0
 12 13  2  0
 13 14  1  0
 14 15  2  0
 14 16  1  0
 16 17  1  0
 13 18  1  0
 18 19  1  0
 19 20  1  0
 20 21  2  0
 21 22  1  0
 22 23  2  0
 23 24  1  0
 20 25  1  0
 24 25  2  0
 11 26  2  0
 18 26  1  0
  7 27  1  0
  4 28  1  0
 27 28  1  0
M  END
