piperidine-amides-23861-covalent
     RDKit          3D

 24 26  0  0  0  0  0  0  0  0999 V2000
    7.0890   -3.3670   19.3800 C   0  0  0  0  0  0  0  0  0  0  0  0
    6.3830   -4.1880   20.3730 C   0  0  0  0  0  0  0  0  0  0  0  0
    5.3610   -4.7990   19.9730 O   0  0  0  0  0  0  0  0  0  0  0  0
    6.8740   -4.3190   21.6970 N   0  0  0  0  0  0  0  0  0  0  0  0
    6.6030   -5.5230   22.4060 C   0  0  0  0  0  0  0  0  0  0  0  0
    6.1050   -5.2550   23.7390 C   0  0  0  0  0  0  0  0  0  0  0  0
    6.1550   -3.8180   24.0270 C   0  0  0  0  0  0  0  0  0  0  0  0
    5.5840   -3.4390   25.3720 C   0  0  0  0  0  0  0  0  0  0  0  0
    4.7060   -2.5650   25.3860 O   0  0  0  0  0  0  0  0  0  0  0  0
    5.9650   -4.0270   26.6070 N   0  0  0  0  0  0  0  0  0  0  0  0
    6.7860   -5.1530   26.7630 C   0  0  0  0  0  0  0  0  0  0  0  0
    6.7600   -5.6530   28.1220 C   0  0  0  0  0  0  0  0  0  0  0  0
    5.7170   -4.6860   28.7570 C   0  0  0  0  0  0  0  0  0  0  0  0
    5.0860   -3.9170   27.7700 C   0  0  1  0  0  0  0  0  0  0  0  0
    5.1850   -2.6960   28.7160 C   0  0  1  0  0  0  0  0  0  0  0  0
    4.8430   -1.7780   27.5870 C   0  0  0  0  0  0  0  0  0  0  0  0
    4.2930   -2.7050   29.8300 N   0  0  0  0  0  0  0  0  0  0  0  0
    3.7070   -1.7120   30.4950 C   0  0  0  0  0  0  0  0  0  0  0  0
    2.8360   -2.1610   31.6240 C   0  0  0  0  0  0  0  0  0  0  0  0
    2.9350   -3.6710   31.6090 C   0  0  0  0  0  0  0  0  0  0  0  0
    2.2340   -4.6470   32.5690 C   0  0  0  0  0  0  0  0  0  0  0  0
    3.8480   -3.7890   30.4650 N   0  0  0  0  0  0  0  0  0  0  0  0
    7.5310   -3.3240   23.7180 C   0  0  0  0  0  0  0  0  0  0  0  0
    7.6820   -3.2580   22.3140 C   0  0  0  0  0  0  0  0  0  0  0  0
  1  2  1  0
  2  3  2  0
  2  4  1  0
  4  5  1  0
  5  6  1  0
  6  7  1  0
  7  8  1  0
  8  9  2  0
  8 10  1  0
 10 11  1  0
 11 12  1  0
 12 13  1  0
 10 14  1  0
 14 13  1  1
 14 15  1  0
 15 16  1  6
 15 17  1  0
 17 18  1  0
 18 19  2  0
 19 20  1  0
 20 21  1  0
 17 22  1  0
 20 22  2  0
  7 23  1  0
  4 24  1  0
 23 24  1  0
M  END
