piperidine-amides-29707-covalent
     RDKit          3D

 27 29  0  0  0  0  0  0  0  0999 V2000
    7.0750   -3.3510   19.2770 C   0  0  0  0  0  0  0  0  0  0  0  0
    6.4140   -4.1950   20.2640 C   0  0  0  0  0  0  0  0  0  0  0  0
    5.3760   -4.7860   19.9690 O   0  0  0  0  0  0  0  0  0  0  0  0
    7.0080   -4.3920   21.5550 N   0  0  0  0  0  0  0  0  0  0  0  0
    7.7640   -3.3250   22.1580 C   0  0  0  0  0  0  0  0  0  0  0  0
    6.9090   -2.6330   23.1700 C   0  0  0  0  0  0  0  0  0  0  0  0
    6.4240   -3.7000   24.1230 C   0  0  0  0  0  0  0  0  0  0  0  0
    5.4710   -3.1240   25.1030 C   0  0  0  0  0  0  0  0  0  0  0  0
    4.3430   -2.6940   24.8140 O   0  0  0  0  0  0  0  0  0  0  0  0
    5.9060   -3.1000   26.4200 N   0  0  0  0  0  0  0  0  0  0  0  0
    5.1700   -2.3790   27.4250 C   0  0  0  0  0  0  0  0  0  0  0  0
    5.4010   -3.0540   28.7610 C   0  0  0  0  0  0  0  0  0  0  0  0
    5.7650   -4.3640   28.7820 C   0  0  0  0  0  0  0  0  0  0  0  0
    6.6130   -4.8600   27.8230 C   0  0  0  0  0  0  0  0  0  0  0  0
    7.3300   -5.9260   28.0730 C   0  0  0  0  0  0  0  0  0  0  0  0
    7.0800   -6.4340   29.3580 N   0  0  0  0  0  0  0  0  0  0  0  0
    6.2250   -7.5680   29.6130 C   0  0  0  0  0  0  0  0  0  0  0  0
    6.5670   -8.7950   29.6510 O   0  0  0  0  0  0  0  0  0  0  0  0
    4.9110   -7.2860   29.8800 C   0  0  0  0  0  0  0  0  0  0  0  0
    4.5480   -7.1550   31.2040 C   0  0  0  0  0  0  0  0  0  0  0  0
    5.4510   -7.5260   32.2020 C   0  0  0  0  0  0  0  0  0  0  0  0
    8.1810   -6.3250   27.0380 C   0  0  0  0  0  0  0  0  0  0  0  0
    8.3190   -5.7550   25.7940 C   0  0  0  0  0  0  0  0  0  0  0  0
    7.5460   -4.6740   25.5550 C   0  0  0  0  0  0  0  0  0  0  0  0
    6.6760   -4.2290   26.6530 C   0  0  0  0  0  0  0  0  0  0  0  0
    5.7460   -4.8810   23.4860 C   0  0  0  0  0  0  0  0  0  0  0  0
    6.5800   -5.4800   22.3730 C   0  0  0  0  0  0  0  0  0  0  0  0
  1  2  1  0
  2  3  2  0
  2  4  1  0
  4  5  1  0
  5  6  1  0
  6  7  1  0
  7  8  1  0
  8  9  2  0
  8 10  1  0
 10 11  1  0
 11 12  1  0
 12 13  1  0
 13 14  1  0
 14 15  2  0
 15 16  1  0
 16 17  1  0
 17 18  2  0
 17 19  1  0
 19 20  1  0
 20 21  1  0
 15 22  1  0
 22 23  2  0
 23 24  1  0
 10 25  1  0
 14 25  1  0
 24 25  2  0
  7 26  1  0
  4 27  1  0
 26 27  1  0
M  END
