piperidine-amides-13594-covalent
     RDKit          3D

 29 31  0  0  0  0  0  0  0  0999 V2000
    7.0880   -3.3030   19.2980 C   0  0  0  0  0  0  0  0  0  0  0  0
    6.3580   -4.1380   20.2920 C   0  0  0  0  0  0  0  0  0  0  0  0
    5.3200   -4.7230   19.9430 O   0  0  0  0  0  0  0  0  0  0  0  0
    6.8830   -4.2940   21.5920 N   0  0  0  0  0  0  0  0  0  0  0  0
    6.6690   -5.5160   22.3380 C   0  0  0  0  0  0  0  0  0  0  0  0
    6.1440   -5.1810   23.7480 C   0  0  0  0  0  0  0  0  0  0  0  0
    6.2610   -3.7130   24.0000 C   0  0  0  0  0  0  0  0  0  0  0  0
    5.7830   -3.3350   25.3390 C   0  0  0  0  0  0  0  0  0  0  0  0
    4.5770   -3.5010   25.5520 O   0  0  0  0  0  0  0  0  0  0  0  0
    6.6820   -2.8160   26.2780 N   0  0  0  0  0  0  0  0  0  0  0  0
    6.3910   -1.8080   27.2340 C   0  0  1  0  0  0  0  0  0  0  0  0
    7.2660   -1.6180   28.2680 C   0  0  0  0  0  0  0  0  0  0  0  0
    7.0050   -0.6260   29.2290 C   0  0  0  0  0  0  0  0  0  0  0  0
    6.2880    0.5240   28.8980 C   0  0  2  0  0  0  0  0  0  0  0  0
    5.1820    0.8380   29.8430 C   0  0  0  0  0  0  0  0  0  0  0  0
    4.5050    2.1930   29.6010 C   0  0  0  0  0  0  0  0  0  0  0  0
    5.6100    0.7330   31.1270 C   0  0  0  0  0  0  0  0  0  0  0  0
    6.0040    0.7260   27.5750 C   0  0  0  0  0  0  0  0  0  0  0  0
    6.0930   -0.4760   26.7160 C   0  0  2  0  0  0  0  0  0  0  0  0
    4.9170   -1.1430   27.4320 C   0  0  0  0  0  0  0  0  0  0  0  0
    3.6820   -0.5530   27.3190 C   0  0  0  0  0  0  0  0  0  0  0  0
    3.1920   -1.2360   28.5830 C   0  0  0  0  0  0  0  0  0  0  0  0
    1.7820   -0.9120   28.9570 C   0  0  0  0  0  0  0  0  0  0  0  0
    0.9780    0.0500   28.0620 C   0  0  0  0  0  0  0  0  0  0  0  0
   -0.6920    0.4760   28.4440 Cl  0  0  0  0  0  0  0  0  0  0  0  0
    1.6670    0.6210   26.8350 C   0  0  0  0  0  0  0  0  0  0  0  0
    2.9790    0.3990   26.3750 C   0  0  0  0  0  0  0  0  0  0  0  0
    7.5670   -3.1330   23.5880 C   0  0  0  0  0  0  0  0  0  0  0  0
    7.6840   -3.2290   22.1070 C   0  0  0  0  0  0  0  0  0  0  0  0
  1  2  1  0
  2  3  2  0
  2  4  1  0
  4  5  1  0
  5  6  1  0
  6  7  1  0
  7  8  1  0
  8  9  2  0
  8 10  1  0
 11 10  1  6
 11 12  1  0
 12 13  1  0
 13 14  1  0
 14 15  1  1
 15 16  1  0
 15 17  1  0
 14 18  1  0
 11 19  1  0
 18 19  1  0
 19 20  1  1
 20 21  1  0
 21 22  2  0
 22 23  1  0
 23 24  2  0
 24 25  1  0
 24 26  1  0
 21 27  1  0
 26 27  2  0
  7 28  1  0
  4 29  1  0
 28 29  1  0
M  END
