piperidine-amides-34844-covalent
     RDKit          3D

 26 28  0  0  0  0  0  0  0  0999 V2000
    7.1260   -3.2970   19.2750 C   0  0  0  0  0  0  0  0  0  0  0  0
    6.3540   -4.0710   20.2730 C   0  0  0  0  0  0  0  0  0  0  0  0
    5.3020   -4.5910   19.9030 O   0  0  0  0  0  0  0  0  0  0  0  0
    6.8770   -4.2140   21.5580 N   0  0  0  0  0  0  0  0  0  0  0  0
    7.7250   -3.2170   22.1580 C   0  0  0  0  0  0  0  0  0  0  0  0
    7.0240   -2.6520   23.3510 C   0  0  0  0  0  0  0  0  0  0  0  0
    6.5810   -3.8040   24.2460 C   0  0  0  0  0  0  0  0  0  0  0  0
    5.7420   -3.2130   25.3120 C   0  0  0  0  0  0  0  0  0  0  0  0
    4.6210   -2.7710   25.0150 O   0  0  0  0  0  0  0  0  0  0  0  0
    6.1680   -3.1370   26.6580 N   0  0  0  0  0  0  0  0  0  0  0  0
    6.2210   -1.7910   27.2230 C   0  0  0  0  0  0  0  0  0  0  0  0
    6.9090   -1.6770   28.5540 C   0  0  0  0  0  0  0  0  0  0  0  0
    7.0440   -0.4970   29.2480 C   0  0  0  0  0  0  0  0  0  0  0  0
    6.5330    0.6670   28.7280 C   0  0  0  0  0  0  0  0  0  0  0  0
    6.6880    2.3110   29.6620 Br  0  0  0  0  0  0  0  0  0  0  0  0
    5.8990    0.6250   27.5070 C   0  0  0  0  0  0  0  0  0  0  0  0
    5.7200   -0.6350   26.6990 C   0  0  0  0  0  0  0  0  0  0  0  0
    5.8000   -4.2510   27.4800 C   0  0  2  0  0  0  0  0  0  0  0  0
    5.5080   -5.5600   26.7640 C   0  0  0  0  0  0  0  0  0  0  0  0
    4.7890   -6.2800   27.7610 C   0  0  0  0  0  0  0  0  0  0  0  0
    4.5350   -5.5230   29.2080 S   0  0  0  0  0  0  0  0  0  0  0  0
    3.1130   -5.5950   29.6640 O   0  0  0  0  0  0  0  0  0  0  0  0
    5.5030   -6.0350   30.2420 O   0  0  0  0  0  0  0  0  0  0  0  0
    4.9450   -3.9350   28.5910 C   0  0  0  0  0  0  0  0  0  0  0  0
    5.9290   -4.9640   23.5740 C   0  0  0  0  0  0  0  0  0  0  0  0
    6.6100   -5.4020   22.3270 C   0  0  0  0  0  0  0  0  0  0  0  0
  1  2  1  0
  2  3  2  0
  2  4  1  0
  4  5  1  0
  5  6  1  0
  6  7  1  0
  7  8  1  0
  8  9  2  0
  8 10  1  0
 10 11  1  0
 11 12  2  0
 12 13  1  0
 13 14  2  0
 14 15  1  0
 14 16  1  0
 11 17  1  0
 16 17  2  0
 18 10  1  6
 18 19  1  0
 19 20  2  0
 21 20  1  0
 21 22  2  0
 21 23  2  0
 18 24  1  0
 21 24  1  0
  7 25  1  0
  4 26  1  0
 25 26  1  0
M  END
