piperidine-amides-14240-covalent
     RDKit          3D

 24 26  0  0  0  0  0  0  0  0999 V2000
    7.0330   -3.3260   19.3540 C   0  0  0  0  0  0  0  0  0  0  0  0
    6.3510   -4.1890   20.3580 C   0  0  0  0  0  0  0  0  0  0  0  0
    5.3810   -4.8720   19.9860 O   0  0  0  0  0  0  0  0  0  0  0  0
    6.8380   -4.2450   21.6890 N   0  0  0  0  0  0  0  0  0  0  0  0
    7.6620   -3.1820   22.2340 C   0  0  0  0  0  0  0  0  0  0  0  0
    7.5310   -3.1960   23.7640 C   0  0  0  0  0  0  0  0  0  0  0  0
    6.1510   -3.6680   24.0710 C   0  0  0  0  0  0  0  0  0  0  0  0
    5.5760   -3.1540   25.3470 C   0  0  0  0  0  0  0  0  0  0  0  0
    4.3490   -3.0240   25.3470 O   0  0  0  0  0  0  0  0  0  0  0  0
    6.3590   -2.8500   26.4760 N   0  0  0  0  0  0  0  0  0  0  0  0
    6.7310   -1.5580   26.9670 C   0  0  1  0  0  0  0  0  0  0  0  0
    5.9980   -0.4150   26.6080 C   0  0  0  0  0  0  0  0  0  0  0  0
    5.1240    0.3310   27.4380 C   0  0  0  0  0  0  0  0  0  0  0  0
    5.4700    0.8040   28.6960 C   0  0  0  0  0  0  0  0  0  0  0  0
    5.3110    2.2240   29.0870 C   0  0  0  0  0  0  0  0  0  0  0  0
    5.6710    2.7660   30.4720 C   0  0  0  0  0  0  0  0  0  0  0  0
    6.2160    1.7050   31.4330 C   0  0  0  0  0  0  0  0  0  0  0  0
    6.3410    0.3930   31.0040 C   0  0  0  0  0  0  0  0  0  0  0  0
    5.9640   -0.0440   29.6330 C   0  0  0  0  0  0  0  0  0  0  0  0
    6.1090   -1.3740   29.2200 N   0  0  0  0  0  0  0  0  0  0  0  0
    7.1900   -1.3590   28.3680 C   0  0  0  0  0  0  0  0  0  0  0  0
    8.4830   -1.1300   28.8040 O   0  0  0  0  0  0  0  0  0  0  0  0
    6.1620   -5.1240   23.8930 C   0  0  0  0  0  0  0  0  0  0  0  0
    6.6370   -5.4500   22.4580 C   0  0  0  0  0  0  0  0  0  0  0  0
  1  2  1  0
  2  3  2  0
  2  4  1  0
  4  5  1  0
  5  6  1  0
  6  7  1  0
  7  8  1  0
  8  9  2  0
  8 10  1  0
 11 10  1  1
 11 12  1  0
 12 13  1  0
 13 14  1  0
 14 15  1  0
 15 16  2  0
 16 17  1  0
 17 18  2  0
 14 19  2  0
 18 19  1  0
 19 20  1  0
 11 21  1  0
 20 21  1  0
 21 22  2  0
  7 23  1  0
  4 24  1  0
 23 24  1  0
M  END
