piperidine-amides-30670-covalent
     RDKit          3D

 27 29  0  0  0  0  0  0  0  0999 V2000
    7.0560   -3.3410   19.3440 C   0  0  0  0  0  0  0  0  0  0  0  0
    6.3780   -4.1790   20.3330 C   0  0  0  0  0  0  0  0  0  0  0  0
    5.3820   -4.8340   19.9800 O   0  0  0  0  0  0  0  0  0  0  0  0
    6.8530   -4.2980   21.6500 N   0  0  0  0  0  0  0  0  0  0  0  0
    7.6690   -3.2600   22.2650 C   0  0  0  0  0  0  0  0  0  0  0  0
    7.2570   -3.1190   23.7160 C   0  0  0  0  0  0  0  0  0  0  0  0
    5.9300   -3.7610   23.9940 C   0  0  0  0  0  0  0  0  0  0  0  0
    5.5300   -3.6880   25.4260 C   0  0  0  0  0  0  0  0  0  0  0  0
    4.4370   -3.1390   25.7570 O   0  0  0  0  0  0  0  0  0  0  0  0
    6.3410   -4.2030   26.4520 N   0  0  0  0  0  0  0  0  0  0  0  0
    7.2640   -5.3080   26.1680 C   0  0  0  0  0  0  0  0  0  0  0  0
    6.8810   -5.8090   27.4910 C   0  0  0  0  0  0  0  0  0  0  0  0
    5.9050   -4.7450   27.7660 C   0  0  2  0  0  0  0  0  0  0  0  0
    4.5710   -5.3040   27.8980 C   0  0  0  0  0  0  0  0  0  0  0  0
    4.8240   -4.8740   29.3010 C   0  0  1  0  0  0  0  0  0  0  0  0
    4.9400   -6.1800   30.0130 C   0  0  0  0  0  0  0  0  0  0  0  0
    4.3230   -6.0540   31.2920 N   0  0  0  0  0  0  0  0  0  0  0  0
    4.7900   -6.9160   32.2230 C   0  0  0  0  0  0  0  0  0  0  0  0
    6.0150   -6.9440   32.6040 O   0  0  0  0  0  0  0  0  0  0  0  0
    3.9350   -7.6890   32.6830 O   0  0  0  0  0  0  0  0  0  0  0  0
    4.2960   -8.3800   33.8290 C   0  0  0  0  0  0  0  0  0  0  0  0
    3.3060   -9.3560   34.4230 C   0  0  0  0  0  0  0  0  0  0  0  0
    4.5450   -7.3240   34.8600 C   0  0  0  0  0  0  0  0  0  0  0  0
    5.6350   -9.0450   33.6630 C   0  0  0  0  0  0  0  0  0  0  0  0
    5.9660   -4.1390   29.0510 C   0  0  0  0  0  0  0  0  0  0  0  0
    5.8100   -5.1610   23.5370 C   0  0  0  0  0  0  0  0  0  0  0  0
    6.5680   -5.4550   22.4300 C   0  0  0  0  0  0  0  0  0  0  0  0
  1  2  1  0
  2  3  2  0
  2  4  1  0
  4  5  1  0
  5  6  1  0
  6  7  1  0
  7  8  1  0
  8  9  2  0
  8 10  1  0
 10 11  1  0
 11 12  1  0
 13 10  1  0
 13 12  1  1
 13 14  1  0
 14 15  1  0
 15 16  1  1
 16 17  1  0
 17 18  1  0
 18 19  2  0
 18 20  1  0
 21 20  1  0
 21 22  1  0
 21 23  1  0
 21 24  1  0
 13 25  1  0
 15 25  1  0
  7 26  1  0
  4 27  1  0
 26 27  1  0
M  END
