piperidine-amides-12290-covalent
     RDKit          3D

 24 25  0  0  0  0  0  0  0  0999 V2000
    7.0360   -3.3210   19.3680 C   0  0  0  0  0  0  0  0  0  0  0  0
    6.3380   -4.1550   20.3430 C   0  0  0  0  0  0  0  0  0  0  0  0
    5.3830   -4.8480   19.9830 O   0  0  0  0  0  0  0  0  0  0  0  0
    6.7780   -4.1970   21.7160 N   0  0  0  0  0  0  0  0  0  0  0  0
    7.6710   -3.1680   22.2000 C   0  0  0  0  0  0  0  0  0  0  0  0
    7.4310   -2.9590   23.6550 C   0  0  0  0  0  0  0  0  0  0  0  0
    6.1000   -3.6150   23.9420 C   0  0  0  0  0  0  0  0  0  0  0  0
    5.6070   -3.2320   25.2960 C   0  0  0  0  0  0  0  0  0  0  0  0
    4.3970   -3.2460   25.5880 O   0  0  0  0  0  0  0  0  0  0  0  0
    6.5490   -2.8430   26.2790 N   0  0  0  0  0  0  0  0  0  0  0  0
    6.4150   -1.5710   26.9640 C   0  0  0  0  0  0  0  0  0  0  0  0
    6.9730   -1.6350   28.3570 C   0  0  0  0  0  0  0  0  0  0  0  0
    6.9430   -0.5320   29.1760 C   0  0  0  0  0  0  0  0  0  0  0  0
    6.3800    0.6550   28.6860 C   0  0  0  0  0  0  0  0  0  0  0  0
    6.3060    1.8050   29.4430 C   0  0  0  0  0  0  0  0  0  0  0  0
    5.0690    2.5120   29.3540 N   0  0  0  0  0  0  0  0  0  0  0  0
    3.9360    2.0060   30.0660 C   0  0  0  0  0  0  0  0  0  0  0  0
    4.9980    3.5130   28.3220 C   0  0  0  0  0  0  0  0  0  0  0  0
    5.8750    0.6880   27.4040 C   0  0  0  0  0  0  0  0  0  0  0  0
    5.8830   -0.4040   26.5340 C   0  0  0  0  0  0  0  0  0  0  0  0
    5.3360   -0.1580   25.3090 O   0  0  0  0  0  0  0  0  0  0  0  0
    4.0580   -0.6720   25.1600 C   0  0  0  0  0  0  0  0  0  0  0  0
    6.1270   -5.1240   23.7490 C   0  0  0  0  0  0  0  0  0  0  0  0
    6.6480   -5.4190   22.4750 C   0  0  0  0  0  0  0  0  0  0  0  0
  1  2  1  0
  2  3  2  0
  2  4  1  0
  4  5  1  0
  5  6  1  0
  6  7  1  0
  7  8  1  0
  8  9  2  0
  8 10  1  0
 10 11  1  0
 11 12  2  0
 12 13  1  0
 13 14  2  0
 14 15  1  0
 15 16  1  0
 16 17  1  0
 16 18  1  0
 14 19  1  0
 11 20  1  0
 19 20  2  0
 20 21  1  0
 21 22  1  0
  7 23  1  0
  4 24  1  0
 23 24  1  0
M  END
