piperidine-amides-30783-covalent
     RDKit          3D

 28 30  0  0  0  0  0  0  0  0999 V2000
    7.1110   -3.3230   19.3180 C   0  0  0  0  0  0  0  0  0  0  0  0
    6.3150   -4.1080   20.2670 C   0  0  0  0  0  0  0  0  0  0  0  0
    5.2400   -4.5880   19.8910 O   0  0  0  0  0  0  0  0  0  0  0  0
    6.7600   -4.3870   21.5690 N   0  0  0  0  0  0  0  0  0  0  0  0
    6.2980   -5.5270   22.3200 C   0  0  0  0  0  0  0  0  0  0  0  0
    6.0810   -5.0180   23.7310 C   0  0  0  0  0  0  0  0  0  0  0  0
    5.8900   -3.5230   23.7890 C   0  0  0  0  0  0  0  0  0  0  0  0
    5.6090   -2.9770   25.1420 C   0  0  0  0  0  0  0  0  0  0  0  0
    4.6600   -3.4500   25.8350 O   0  0  0  0  0  0  0  0  0  0  0  0
    6.3500   -1.8960   25.7040 N   0  0  0  0  0  0  0  0  0  0  0  0
    6.0770   -0.5380   25.2080 C   0  0  0  0  0  0  0  0  0  0  0  0
    7.0500   -0.1230   24.1610 C   0  0  0  0  0  0  0  0  0  0  0  0
    7.0820    1.1830   23.4830 C   0  0  0  0  0  0  0  0  0  0  0  0
    8.1290    1.4680   22.4440 C   0  0  0  0  0  0  0  0  0  0  0  0
    9.1580    0.4170   22.0840 C   0  0  0  0  0  0  0  0  0  0  0  0
    9.0190   -0.8470   22.8300 C   0  0  0  0  0  0  0  0  0  0  0  0
    9.8500   -1.9280   22.6470 C   0  0  0  0  0  0  0  0  0  0  0  0
    7.9900   -1.0150   23.8010 N   0  0  0  0  0  0  0  0  0  0  0  0
    6.8390   -1.9290   27.0310 C   0  0  0  0  0  0  0  0  0  0  0  0
    7.2060   -3.2890   27.4260 C   0  0  0  0  0  0  0  0  0  0  0  0
    6.6680   -3.9320   28.6330 C   0  0  0  0  0  0  0  0  0  0  0  0
    7.2590   -5.2340   28.6710 C   0  0  0  0  0  0  0  0  0  0  0  0
    7.9330   -6.0650   28.2700 C   0  0  0  0  0  0  0  0  0  0  0  0
    8.4590   -5.3670   27.0310 C   0  0  0  0  0  0  0  0  0  0  0  0
    9.3340   -6.0280   26.2110 C   0  0  0  0  0  0  0  0  0  0  0  0
    8.1010   -4.0930   26.6770 N   0  0  0  0  0  0  0  0  0  0  0  0
    7.0210   -2.7330   23.2170 C   0  0  0  0  0  0  0  0  0  0  0  0
    7.7560   -3.5740   22.2100 C   0  0  0  0  0  0  0  0  0  0  0  0
  1  2  1  0
  2  3  2  0
  2  4  1  0
  4  5  1  0
  5  6  1  0
  6  7  1  0
  7  8  1  0
  8  9  2  0
  8 10  1  0
 10 11  1  0
 11 12  1  0
 12 13  2  0
 13 14  1  0
 14 15  2  0
 15 16  1  0
 16 17  1  0
 12 18  1  0
 16 18  2  0
 10 19  1  0
 19 20  1  0
 20 21  2  0
 21 22  1  0
 22 23  2  0
 23 24  1  0
 24 25  1  0
 20 26  1  0
 24 26  2  0
  7 27  1  0
  4 28  1  0
 27 28  1  0
M  END
