piperidine-amides-6947-covalent
     RDKit          3D

 22 24  0  0  0  0  0  0  0  0999 V2000
    7.1100   -3.3030   19.2550 C   0  0  0  0  0  0  0  0  0  0  0  0
    6.3370   -4.0610   20.2440 C   0  0  0  0  0  0  0  0  0  0  0  0
    5.2740   -4.6240   19.9120 O   0  0  0  0  0  0  0  0  0  0  0  0
    6.8200   -4.2050   21.5460 N   0  0  0  0  0  0  0  0  0  0  0  0
    6.5020   -5.3760   22.3130 C   0  0  0  0  0  0  0  0  0  0  0  0
    5.5180   -4.9270   23.4020 C   0  0  0  0  0  0  0  0  0  0  0  0
    6.1200   -3.7540   24.1690 C   0  0  0  0  0  0  0  0  0  0  0  0
    5.0590   -3.2670   25.0920 C   0  0  0  0  0  0  0  0  0  0  0  0
    3.8850   -3.5900   24.8400 O   0  0  0  0  0  0  0  0  0  0  0  0
    5.3440   -2.4640   26.2200 N   0  0  0  0  0  0  0  0  0  0  0  0
    5.9070   -3.0700   27.3780 C   0  0  0  0  0  0  0  0  0  0  0  0
    7.2920   -3.2660   26.9350 C   0  0  0  0  0  0  0  0  0  0  0  0
    7.6850   -2.3830   25.8630 N   0  0  0  0  0  0  0  0  0  0  0  0
    8.9330   -2.6700   25.5700 N   0  0  0  0  0  0  0  0  0  0  0  0
    9.2380   -3.6690   26.4380 C   0  0  0  0  0  0  0  0  0  0  0  0
   10.3950   -4.2860   26.5150 C   0  0  0  0  0  0  0  0  0  0  0  0
   10.6560   -4.8280   25.5260 C   0  0  0  0  0  0  0  0  0  0  0  0
   11.5580   -3.7840   25.7930 C   0  0  0  0  0  0  0  0  0  0  0  0
    8.2750   -4.0290   27.2400 N   0  0  0  0  0  0  0  0  0  0  0  0
    8.4100   -5.0760   28.2160 C   0  0  0  0  0  0  0  0  0  0  0  0
    6.6480   -2.6550   23.2930 C   0  0  0  0  0  0  0  0  0  0  0  0
    7.5560   -3.1570   22.2180 C   0  0  0  0  0  0  0  0  0  0  0  0
  1  2  1  0
  2  3  2  0
  2  4  1  0
  4  5  1  0
  5  6  1  0
  6  7  1  0
  7  8  1  0
  8  9  2  0
  8 10  1  0
 10 11  1  0
 11 12  1  0
 12 13  2  0
 13 14  1  0
 14 15  2  0
 15 16  1  0
 16 17  1  0
 16 18  1  0
 17 18  1  0
 12 19  1  0
 15 19  1  0
 19 20  1  0
  7 21  1  0
  4 22  1  0
 21 22  1  0
M  END
