piperidine-amides-8237-covalent
     RDKit          3D

 25 26  0  0  0  0  0  0  0  0999 V2000
    7.1050   -3.2820   19.2230 C   0  0  0  0  0  0  0  0  0  0  0  0
    6.3730   -4.0470   20.2300 C   0  0  0  0  0  0  0  0  0  0  0  0
    5.3000   -4.5840   19.8980 O   0  0  0  0  0  0  0  0  0  0  0  0
    6.9130   -4.2100   21.5290 N   0  0  0  0  0  0  0  0  0  0  0  0
    6.4770   -5.3240   22.3070 C   0  0  0  0  0  0  0  0  0  0  0  0
    5.6640   -4.8020   23.4550 C   0  0  0  0  0  0  0  0  0  0  0  0
    6.5360   -3.8170   24.2100 C   0  0  0  0  0  0  0  0  0  0  0  0
    5.7880   -3.2660   25.3840 C   0  0  0  0  0  0  0  0  0  0  0  0
    4.5830   -3.0870   25.2190 O   0  0  0  0  0  0  0  0  0  0  0  0
    6.4900   -2.9930   26.5570 N   0  0  0  0  0  0  0  0  0  0  0  0
    6.2270   -3.6480   27.8010 C   0  0  0  0  0  0  0  0  0  0  0  0
    5.7040   -4.9440   27.7020 C   0  0  0  0  0  0  0  0  0  0  0  0
    6.0870   -5.8840   26.9850 O   0  0  0  0  0  0  0  0  0  0  0  0
    4.5490   -5.0360   28.6250 N   0  0  0  0  0  0  0  0  0  0  0  0
    3.8580   -6.1760   29.0900 C   0  0  2  0  0  0  0  0  0  0  0  0
    4.2120   -7.3950   28.5410 C   0  0  0  0  0  0  0  0  0  0  0  0
    3.9000   -7.2540   27.0810 C   0  0  0  0  0  0  0  0  0  0  0  0
    2.3970   -6.1120   28.6900 C   0  0  0  0  0  0  0  0  0  0  0  0
    1.8980   -4.8230   28.1260 C   0  0  0  0  0  0  0  0  0  0  0  0
    0.4610   -4.6950   27.7060 C   0  0  0  0  0  0  0  0  0  0  0  0
   -0.3600   -5.9790   27.9230 C   0  0  0  0  0  0  0  0  0  0  0  0
    0.1850   -7.1210   28.4520 C   0  0  0  0  0  0  0  0  0  0  0  0
    1.5130   -7.1860   28.8210 C   0  0  0  0  0  0  0  0  0  0  0  0
    6.9940   -2.6680   23.3770 C   0  0  0  0  0  0  0  0  0  0  0  0
    7.6880   -3.1750   22.1520 C   0  0  0  0  0  0  0  0  0  0  0  0
  1  2  1  0
  2  3  2  0
  2  4  1  0
  4  5  1  0
  5  6  1  0
  6  7  1  0
  7  8  1  0
  8  9  2  0
  8 10  1  0
 10 11  1  0
 11 12  1  0
 12 13  2  0
 12 14  1  0
 14 15  1  0
 15 16  1  6
 16 17  1  0
 15 18  1  0
 18 19  2  0
 19 20  1  0
 20 21  2  0
 21 22  1  0
 18 23  1  0
 22 23  2  0
  7 24  1  0
  4 25  1  0
 24 25  1  0
M  END
