piperidine-amides-1722-covalent
     RDKit          3D

 20 21  0  0  0  0  0  0  0  0999 V2000
    7.0790   -3.2900   19.2620 C   0  0  0  0  0  0  0  0  0  0  0  0
    6.3470   -4.0770   20.2940 C   0  0  0  0  0  0  0  0  0  0  0  0
    5.3510   -4.7400   19.9510 O   0  0  0  0  0  0  0  0  0  0  0  0
    6.8240   -4.0790   21.6240 N   0  0  0  0  0  0  0  0  0  0  0  0
    7.7430   -3.0670   22.1000 C   0  0  0  0  0  0  0  0  0  0  0  0
    7.7460   -3.1740   23.6190 C   0  0  0  0  0  0  0  0  0  0  0  0
    6.3680   -3.5800   23.9970 C   0  0  0  0  0  0  0  0  0  0  0  0
    6.1000   -3.4320   25.4480 C   0  0  0  0  0  0  0  0  0  0  0  0
    4.9050   -3.4040   25.7790 O   0  0  0  0  0  0  0  0  0  0  0  0
    7.1760   -3.3060   26.3550 N   0  0  0  0  0  0  0  0  0  0  0  0
    7.6780   -4.2550   27.3010 C   0  0  2  0  0  0  0  0  0  0  0  0
    8.5520   -5.2810   27.0090 C   0  0  0  0  0  0  0  0  0  0  0  0
    6.5160   -4.9840   27.9620 C   0  0  0  0  0  0  0  0  0  0  0  0
    5.3300   -4.3480   28.2060 C   0  0  0  0  0  0  0  0  0  0  0  0
    4.3960   -5.2530   28.8370 C   0  0  0  0  0  0  0  0  0  0  0  0
    5.1910   -6.3900   28.8950 N   0  0  0  0  0  0  0  0  0  0  0  0
    4.8200   -7.6720   29.4330 C   0  0  0  0  0  0  0  0  0  0  0  0
    6.4420   -6.2870   28.4000 N   0  0  0  0  0  0  0  0  0  0  0  0
    5.9330   -4.9590   23.5610 C   0  0  0  0  0  0  0  0  0  0  0  0
    6.6520   -5.2670   22.4120 C   0  0  0  0  0  0  0  0  0  0  0  0
  1  2  1  0
  2  3  2  0
  2  4  1  0
  4  5  1  0
  5  6  1  0
  6  7  1  0
  7  8  1  0
  8  9  2  0
  8 10  1  0
 10 11  1  0
 11 12  1  6
 11 13  1  0
 13 14  1  0
 14 15  2  0
 15 16  1  0
 16 17  1  0
 13 18  2  0
 16 18  1  0
  7 19  1  0
  4 20  1  0
 19 20  1  0
M  END
