piperidine-amides-3305-covalent
     RDKit          3D

 21 22  0  0  0  0  0  0  0  0999 V2000
    7.0730   -3.2810   19.2230 C   0  0  0  0  0  0  0  0  0  0  0  0
    6.3180   -4.0180   20.2340 C   0  0  0  0  0  0  0  0  0  0  0  0
    5.2870   -4.6030   19.9070 O   0  0  0  0  0  0  0  0  0  0  0  0
    6.7870   -4.1160   21.5900 N   0  0  0  0  0  0  0  0  0  0  0  0
    7.6720   -3.1010   22.1160 C   0  0  0  0  0  0  0  0  0  0  0  0
    7.3970   -2.8990   23.5710 C   0  0  0  0  0  0  0  0  0  0  0  0
    6.1010   -3.6330   23.8480 C   0  0  0  0  0  0  0  0  0  0  0  0
    5.5740   -3.3220   25.2050 C   0  0  0  0  0  0  0  0  0  0  0  0
    4.3580   -3.3790   25.4640 O   0  0  0  0  0  0  0  0  0  0  0  0
    6.4710   -2.9580   26.2330 N   0  0  0  0  0  0  0  0  0  0  0  0
    6.4810   -1.5920   26.7010 C   0  0  0  0  0  0  0  0  0  0  0  0
    5.8100   -1.5470   28.0550 C   0  0  0  0  0  0  0  0  0  0  0  0
    5.1610   -0.5170   28.6520 C   0  0  0  0  0  0  0  0  0  0  0  0
    4.9470    0.7720   28.1530 C   0  0  0  0  0  0  0  0  0  0  0  0
    6.0830    1.2970   27.5830 C   0  0  0  0  0  0  0  0  0  0  0  0
    4.7020   -0.9890   29.9620 N   0  0  0  0  0  0  0  0  0  0  0  0
    5.0710   -2.2490   30.1170 O   0  0  0  0  0  0  0  0  0  0  0  0
    5.7340   -2.5520   28.9450 C   0  0  0  0  0  0  0  0  0  0  0  0
    6.2730   -3.8030   28.7290 C   0  0  0  0  0  0  0  0  0  0  0  0
    6.3800   -5.1190   23.6910 C   0  0  0  0  0  0  0  0  0  0  0  0
    6.4190   -5.3350   22.3070 C   0  0  0  0  0  0  0  0  0  0  0  0
  1  2  1  0
  2  3  2  0
  2  4  1  0
  4  5  1  0
  5  6  1  0
  6  7  1  0
  7  8  1  0
  8  9  2  0
  8 10  1  0
 10 11  1  0
 11 12  1  0
 12 13  1  0
 13 14  1  0
 14 15  1  0
 13 16  2  0
 16 17  1  0
 12 18  2  0
 17 18  1  0
 18 19  1  0
  7 20  1  0
  4 21  1  0
 20 21  1  0
M  END
