piperidine-amides-14220-covalent
     RDKit          3D

 24 25  0  0  0  0  0  0  0  0999 V2000
    7.0970   -3.2550   19.2270 C   0  0  0  0  0  0  0  0  0  0  0  0
    6.3150   -4.0260   20.2350 C   0  0  0  0  0  0  0  0  0  0  0  0
    5.2590   -4.5770   19.8850 O   0  0  0  0  0  0  0  0  0  0  0  0
    6.8070   -4.1550   21.5500 N   0  0  0  0  0  0  0  0  0  0  0  0
    7.6940   -3.1510   22.1040 C   0  0  0  0  0  0  0  0  0  0  0  0
    7.3990   -3.0560   23.5960 C   0  0  0  0  0  0  0  0  0  0  0  0
    6.1420   -3.8170   23.8080 C   0  0  0  0  0  0  0  0  0  0  0  0
    5.5170   -3.5730   25.1200 C   0  0  0  0  0  0  0  0  0  0  0  0
    4.3220   -3.2630   25.1050 O   0  0  0  0  0  0  0  0  0  0  0  0
    6.2600   -3.6820   26.2920 N   0  0  0  0  0  0  0  0  0  0  0  0
    6.4810   -2.6230   27.1770 C   0  0  0  0  0  0  0  0  0  0  0  0
    6.6920   -2.7220   28.5210 C   0  0  0  0  0  0  0  0  0  0  0  0
    6.4080   -1.5870   29.2980 C   0  0  0  0  0  0  0  0  0  0  0  0
    7.3090   -0.5510   29.3360 C   0  0  0  0  0  0  0  0  0  0  0  0
    8.7060   -0.6060   29.7300 C   0  0  0  0  0  0  0  0  0  0  0  0
    9.2530    0.6560   29.6260 N   0  0  0  0  0  0  0  0  0  0  0  0
    8.3580    1.5520   29.2010 N   0  0  0  0  0  0  0  0  0  0  0  0
    7.1320    0.8040   29.0170 C   0  0  0  0  0  0  0  0  0  0  0  0
    5.8900    1.5590   28.5300 C   0  0  0  0  0  0  0  0  0  0  0  0
    5.6390    1.5780   27.2000 F   0  0  0  0  0  0  0  0  0  0  0  0
    4.7530    1.1060   29.1840 F   0  0  0  0  0  0  0  0  0  0  0  0
    6.0040    2.8770   28.9080 F   0  0  0  0  0  0  0  0  0  0  0  0
    6.4020   -5.3090   23.6160 C   0  0  0  0  0  0  0  0  0  0  0  0
    6.5800   -5.4540   22.1500 C   0  0  0  0  0  0  0  0  0  0  0  0
  1  2  1  0
  2  3  2  0
  2  4  1  0
  4  5  1  0
  5  6  1  0
  6  7  1  0
  7  8  1  0
  8  9  2  0
  8 10  1  0
 10 11  1  0
 11 12  1  0
 12 13  1  0
 13 14  1  0
 14 15  2  0
 15 16  1  0
 16 17  1  0
 14 18  1  0
 17 18  2  0
 18 19  1  0
 19 20  1  0
 19 21  1  0
 19 22  1  0
  7 23  1  0
  4 24  1  0
 23 24  1  0
M  END
