piperidine-amides-4028-covalent
     RDKit          3D

 28 30  0  0  0  0  0  0  0  0999 V2000
    7.1550   -3.2350   19.1720 C   0  0  0  0  0  0  0  0  0  0  0  0
    6.3760   -3.9610   20.1910 C   0  0  0  0  0  0  0  0  0  0  0  0
    5.2760   -4.4450   19.8430 O   0  0  0  0  0  0  0  0  0  0  0  0
    6.8770   -4.1590   21.4980 N   0  0  0  0  0  0  0  0  0  0  0  0
    7.6430   -3.1140   22.0660 C   0  0  0  0  0  0  0  0  0  0  0  0
    7.3540   -2.8860   23.4680 C   0  0  0  0  0  0  0  0  0  0  0  0
    6.0930   -3.4790   23.9570 C   0  0  0  0  0  0  0  0  0  0  0  0
    5.9320   -3.1390   25.4020 C   0  0  0  0  0  0  0  0  0  0  0  0
    4.7980   -2.8580   25.8430 O   0  0  0  0  0  0  0  0  0  0  0  0
    7.0520   -3.1340   26.2640 N   0  0  0  0  0  0  0  0  0  0  0  0
    7.6230   -4.2430   26.9300 C   0  0  2  0  0  0  0  0  0  0  0  0
    8.7660   -4.8830   26.2690 C   0  0  0  0  0  0  0  0  0  0  0  0
    8.4870   -5.5580   25.2340 O   0  0  0  0  0  0  0  0  0  0  0  0
   10.0610   -4.8550   26.6390 N   0  0  0  0  0  0  0  0  0  0  0  0
   11.1460   -4.2900   25.8500 C   0  0  0  0  0  0  0  0  0  0  0  0
   10.8740   -3.6760   24.6420 C   0  0  0  0  0  0  0  0  0  0  0  0
   12.0630   -3.0220   23.7830 C   0  0  0  0  0  0  0  0  0  0  0  0
   13.5300   -3.0910   24.2970 C   0  0  0  0  0  0  0  0  0  0  0  0
   13.6460   -3.8200   25.6590 C   0  0  0  0  0  0  0  0  0  0  0  0
   12.4970   -4.3650   26.3740 C   0  0  0  0  0  0  0  0  0  0  0  0
    6.7660   -5.2100   27.4020 C   0  0  0  0  0  0  0  0  0  0  0  0
    7.0630   -5.7420   28.7950 C   0  0  0  0  0  0  0  0  0  0  0  0
    6.1330   -6.7910   29.3200 C   0  0  0  0  0  0  0  0  0  0  0  0
    5.0430   -7.2690   28.5790 C   0  0  0  0  0  0  0  0  0  0  0  0
    4.7890   -6.7780   27.3150 C   0  0  0  0  0  0  0  0  0  0  0  0
    5.6920   -5.7200   26.7370 C   0  0  0  0  0  0  0  0  0  0  0  0
    5.9920   -4.9620   23.6810 C   0  0  0  0  0  0  0  0  0  0  0  0
    6.4290   -5.2810   22.2540 C   0  0  0  0  0  0  0  0  0  0  0  0
  1  2  1  0
  2  3  2  0
  2  4  1  0
  4  5  1  0
  5  6  1  0
  6  7  1  0
  7  8  1  0
  8  9  2  0
  8 10  1  0
 11 10  1  6
 11 12  1  0
 12 13  2  0
 12 14  1  0
 14 15  1  0
 15 16  2  0
 16 17  1  0
 17 18  2  0
 18 19  1  0
 15 20  1  0
 19 20  2  0
 11 21  1  0
 21 22  2  0
 22 23  1  0
 23 24  2  0
 24 25  1  0
 21 26  1  0
 25 26  2  0
  7 27  1  0
  4 28  1  0
 27 28  1  0
M  END
