piperidine-amides-16125-covalent
     RDKit          3D

 19 20  0  0  0  0  0  0  0  0999 V2000
    7.1030   -3.3280   19.3080 C   0  0  0  0  0  0  0  0  0  0  0  0
    6.3340   -4.1320   20.2870 C   0  0  0  0  0  0  0  0  0  0  0  0
    5.2750   -4.6210   19.9080 O   0  0  0  0  0  0  0  0  0  0  0  0
    6.8670   -4.3410   21.5560 N   0  0  0  0  0  0  0  0  0  0  0  0
    6.6130   -5.5310   22.3220 C   0  0  0  0  0  0  0  0  0  0  0  0
    5.8950   -5.1500   23.5880 C   0  0  0  0  0  0  0  0  0  0  0  0
    6.6510   -4.0340   24.3180 C   0  0  0  0  0  0  0  0  0  0  0  0
    5.8730   -3.7310   25.5320 C   0  0  0  0  0  0  0  0  0  0  0  0
    4.6770   -3.3750   25.4660 O   0  0  0  0  0  0  0  0  0  0  0  0
    6.4860   -3.8680   26.7860 N   0  0  0  0  0  0  0  0  0  0  0  0
    7.1570   -5.1290   27.0580 C   0  0  0  0  0  0  0  0  0  0  0  0
    6.1320   -6.0340   27.6320 C   0  0  0  0  0  0  0  0  0  0  0  0
    5.2340   -5.2450   28.2910 O   0  0  0  0  0  0  0  0  0  0  0  0
    5.5910   -4.0830   28.8300 C   0  0  0  0  0  0  0  0  0  0  0  0
    5.9790   -3.1700   27.9100 C   0  0  0  0  0  0  0  0  0  0  0  0
    6.6330   -2.0470   28.3510 C   0  0  0  0  0  0  0  0  0  0  0  0
    5.3080   -1.9020   27.7460 C   0  0  0  0  0  0  0  0  0  0  0  0
    6.8640   -2.8490   23.4410 C   0  0  0  0  0  0  0  0  0  0  0  0
    7.5720   -3.2510   22.1920 C   0  0  0  0  0  0  0  0  0  0  0  0
  1  2  1  0
  2  3  2  0
  2  4  1  0
  4  5  1  0
  5  6  1  0
  6  7  1  0
  7  8  1  0
  8  9  2  0
  8 10  1  0
 10 11  1  0
 11 12  1  0
 12 13  1  0
 13 14  1  0
 10 15  1  0
 14 15  1  0
 15 16  1  0
 15 17  1  0
  7 18  1  0
  4 19  1  0
 18 19  1  0
M  END
