piperidine-amides-9021-covalent
     RDKit          3D

 21 22  0  0  0  0  0  0  0  0999 V2000
    7.0910   -3.2750   19.2310 C   0  0  0  0  0  0  0  0  0  0  0  0
    6.3450   -4.0260   20.2450 C   0  0  0  0  0  0  0  0  0  0  0  0
    5.3080   -4.6220   19.9130 O   0  0  0  0  0  0  0  0  0  0  0  0
    6.8090   -4.1180   21.5670 N   0  0  0  0  0  0  0  0  0  0  0  0
    7.7370   -3.1520   22.1250 C   0  0  0  0  0  0  0  0  0  0  0  0
    7.5130   -3.1730   23.6020 C   0  0  0  0  0  0  0  0  0  0  0  0
    6.1000   -3.5500   23.8990 C   0  0  0  0  0  0  0  0  0  0  0  0
    5.7170   -3.2350   25.2900 C   0  0  0  0  0  0  0  0  0  0  0  0
    4.5380   -3.4550   25.7030 O   0  0  0  0  0  0  0  0  0  0  0  0
    6.6320   -2.6750   26.1980 N   0  0  0  0  0  0  0  0  0  0  0  0
    6.2520   -1.5420   27.0700 C   0  0  0  0  0  0  0  0  0  0  0  0
    6.0310   -0.3480   26.2160 C   0  0  0  0  0  0  0  0  0  0  0  0
    6.3520   -0.4070   24.7760 C   0  0  0  0  0  0  0  0  0  0  0  0
    6.1200    0.8320   23.9440 C   0  0  0  0  0  0  0  0  0  0  0  0
    5.5720    2.0750   24.6160 C   0  0  0  0  0  0  0  0  0  0  0  0
    5.3390    3.2690   23.8500 F   0  0  0  0  0  0  0  0  0  0  0  0
    5.3090    1.9470   26.0660 C   0  0  0  0  0  0  0  0  0  0  0  0
    5.5340    0.8010   26.7790 C   0  0  0  0  0  0  0  0  0  0  0  0
    5.2980    0.7220   28.0300 O   0  0  0  0  0  0  0  0  0  0  0  0
    5.8630   -5.0060   23.5930 C   0  0  0  0  0  0  0  0  0  0  0  0
    6.6080   -5.3520   22.3160 C   0  0  0  0  0  0  0  0  0  0  0  0
  1  2  1  0
  2  3  2  0
  2  4  1  0
  4  5  1  0
  5  6  1  0
  6  7  1  0
  7  8  1  0
  8  9  2  0
  8 10  1  0
 10 11  1  0
 11 12  1  0
 12 13  2  0
 13 14  1  0
 14 15  2  0
 15 16  1  0
 15 17  1  0
 12 18  1  0
 17 18  2  0
 18 19  1  0
  7 20  1  0
  4 21  1  0
 20 21  1  0
M  END
