piperidine-amides-2217-covalent
     RDKit          3D

 28 30  0  0  0  0  0  0  0  0999 V2000
    7.0540   -3.3270   19.3310 C   0  0  0  0  0  0  0  0  0  0  0  0
    6.3940   -4.1890   20.3460 C   0  0  0  0  0  0  0  0  0  0  0  0
    5.4050   -4.8270   19.9810 O   0  0  0  0  0  0  0  0  0  0  0  0
    6.9240   -4.2800   21.6390 N   0  0  0  0  0  0  0  0  0  0  0  0
    7.7190   -3.2020   22.1820 C   0  0  0  0  0  0  0  0  0  0  0  0
    7.4730   -3.0740   23.6580 C   0  0  0  0  0  0  0  0  0  0  0  0
    6.0840   -3.6200   23.9770 C   0  0  0  0  0  0  0  0  0  0  0  0
    5.7190   -3.2730   25.3640 C   0  0  0  0  0  0  0  0  0  0  0  0
    4.5930   -3.5810   25.7730 O   0  0  0  0  0  0  0  0  0  0  0  0
    6.6010   -2.5860   26.2220 N   0  0  0  0  0  0  0  0  0  0  0  0
    6.0120   -1.7220   27.2230 C   0  0  0  0  0  0  0  0  0  0  0  0
    6.9370   -1.5260   28.4000 C   0  0  0  0  0  0  0  0  0  0  0  0
    6.7300   -0.5000   29.2520 C   0  0  0  0  0  0  0  0  0  0  0  0
    5.7990    0.5160   28.9720 N   0  0  0  0  0  0  0  0  0  0  0  0
    5.5830    1.5820   29.9230 C   0  0  0  0  0  0  0  0  0  0  0  0
    5.2360    1.1170   31.1630 C   0  0  0  0  0  0  0  0  0  0  0  0
    4.6700   -0.1190   31.2470 O   0  0  0  0  0  0  0  0  0  0  0  0
    3.7490   -0.3730   32.2100 C   0  0  0  0  0  0  0  0  0  0  0  0
    4.3930   -0.6830   33.5400 C   0  0  0  0  0  0  0  0  0  0  0  0
    3.5550   -1.0030   34.7730 C   0  0  0  0  0  0  0  0  0  0  0  0
    2.0620   -1.0150   34.6870 C   0  0  0  0  0  0  0  0  0  0  0  0
    1.0680   -1.3770   36.0850 Cl  0  0  0  0  0  0  0  0  0  0  0  0
    1.4800   -0.7040   33.3650 C   0  0  0  0  0  0  0  0  0  0  0  0
    2.2490   -0.3820   32.1150 C   0  0  0  0  0  0  0  0  0  0  0  0
    5.7100    0.9220   27.5890 C   0  0  0  0  0  0  0  0  0  0  0  0
    5.7130   -0.2780   26.6520 C   0  0  0  0  0  0  0  0  0  0  0  0
    6.1140   -5.1160   23.7780 C   0  0  0  0  0  0  0  0  0  0  0  0
    6.6270   -5.4620   22.4020 C   0  0  0  0  0  0  0  0  0  0  0  0
  1  2  1  0
  2  3  2  0
  2  4  1  0
  4  5  1  0
  5  6  1  0
  6  7  1  0
  7  8  1  0
  8  9  2  0
  8 10  1  0
 10 11  1  0
 11 12  1  0
 12 13  1  0
 13 14  1  0
 14 15  1  0
 15 16  1  0
 16 17  1  0
 17 18  1  0
 18 19  2  0
 19 20  1  0
 20 21  2  0
 21 22  1  0
 21 23  1  0
 18 24  1  0
 23 24  2  0
 14 25  1  0
 11 26  1  0
 25 26  1  0
  7 27  1  0
  4 28  1  0
 27 28  1  0
M  END
