piperidine-amides-28046-covalent
     RDKit          3D

 26 28  0  0  0  0  0  0  0  0999 V2000
    7.0570   -3.3350   19.2910 C   0  0  0  0  0  0  0  0  0  0  0  0
    6.3910   -4.1440   20.3400 C   0  0  0  0  0  0  0  0  0  0  0  0
    5.3750   -4.7730   19.9690 O   0  0  0  0  0  0  0  0  0  0  0  0
    6.9050   -4.2300   21.6530 N   0  0  0  0  0  0  0  0  0  0  0  0
    6.6040   -5.3590   22.4790 C   0  0  0  0  0  0  0  0  0  0  0  0
    6.0130   -4.9790   23.7660 C   0  0  0  0  0  0  0  0  0  0  0  0
    6.0050   -3.5130   23.9460 C   0  0  0  0  0  0  0  0  0  0  0  0
    5.5060   -3.0520   25.2750 C   0  0  0  0  0  0  0  0  0  0  0  0
    4.8870   -1.9790   25.2890 O   0  0  0  0  0  0  0  0  0  0  0  0
    5.6590   -3.7430   26.4920 N   0  0  0  0  0  0  0  0  0  0  0  0
    4.4860   -4.4030   27.0710 C   0  0  0  0  0  0  0  0  0  0  0  0
    4.4650   -4.2910   28.5530 C   0  0  0  0  0  0  0  0  0  0  0  0
    5.6960   -4.5220   29.2510 C   0  0  0  0  0  0  0  0  0  0  0  0
    5.7710   -5.7610   29.8420 C   0  0  0  0  0  0  0  0  0  0  0  0
    6.6560   -6.6060   29.6830 O   0  0  0  0  0  0  0  0  0  0  0  0
    4.6450   -5.9080   30.6670 N   0  0  0  0  0  0  0  0  0  0  0  0
    4.6370   -6.8700   31.7590 C   0  0  0  0  0  0  0  0  0  0  0  0
    5.7680   -7.1970   32.5810 N   0  0  0  0  0  0  0  0  0  0  0  0
    5.7090   -8.1850   33.6900 C   0  0  0  0  0  0  0  0  0  0  0  0
    4.5010   -8.7720   33.8830 C   0  0  0  0  0  0  0  0  0  0  0  0
    3.4220   -8.4810   33.1210 C   0  0  0  0  0  0  0  0  0  0  0  0
    3.5370   -7.5710   32.1280 N   0  0  0  0  0  0  0  0  0  0  0  0
    6.7130   -4.2980   28.4100 C   0  0  0  0  0  0  0  0  0  0  0  0
    6.4030   -3.1340   27.5400 C   0  0  0  0  0  0  0  0  0  0  0  0
    7.3120   -2.8910   23.6200 C   0  0  0  0  0  0  0  0  0  0  0  0
    7.7460   -3.1690   22.2030 C   0  0  0  0  0  0  0  0  0  0  0  0
  1  2  1  0
  2  3  2  0
  2  4  1  0
  4  5  1  0
  5  6  1  0
  6  7  1  0
  7  8  1  0
  8  9  2  0
  8 10  1  0
 10 11  1  0
 11 12  1  0
 12 13  1  0
 13 14  1  0
 14 15  2  0
 14 16  1  0
 16 17  1  0
 17 18  2  0
 18 19  1  0
 19 20  2  0
 20 21  1  0
 17 22  1  0
 21 22  2  0
 13 23  1  0
 10 24  1  0
 23 24  1  0
  7 25  1  0
  4 26  1  0
 25 26  1  0
M  END
