piperidine-amides-4268-covalent
     RDKit          3D

 26 27  0  0  0  0  0  0  0  0999 V2000
    7.0970   -3.2840   19.1440 C   0  0  0  0  0  0  0  0  0  0  0  0
    6.2680   -3.9740   20.1400 C   0  0  0  0  0  0  0  0  0  0  0  0
    5.1530   -4.4030   19.7940 O   0  0  0  0  0  0  0  0  0  0  0  0
    6.7710   -4.1910   21.4260 N   0  0  0  0  0  0  0  0  0  0  0  0
    6.2550   -5.2870   22.1730 C   0  0  0  0  0  0  0  0  0  0  0  0
    5.5790   -4.9040   23.4140 C   0  0  0  0  0  0  0  0  0  0  0  0
    6.1490   -3.7310   24.1090 C   0  0  0  0  0  0  0  0  0  0  0  0
    5.2890   -3.2700   25.2300 C   0  0  0  0  0  0  0  0  0  0  0  0
    4.0470   -3.2650   25.1130 O   0  0  0  0  0  0  0  0  0  0  0  0
    5.8680   -2.8240   26.4200 N   0  0  0  0  0  0  0  0  0  0  0  0
    5.9320   -3.4940   27.6500 C   0  0  1  0  0  0  0  0  0  0  0  0
    6.2740   -4.9230   27.7050 C   0  0  0  0  0  0  0  0  0  0  0  0
    5.2770   -5.6980   27.6140 O   0  0  0  0  0  0  0  0  0  0  0  0
    4.7390   -6.0670   28.8190 C   0  0  0  0  0  0  0  0  0  0  0  0
    4.4650   -7.4150   28.7440 C   0  0  0  0  0  0  0  0  0  0  0  0
    4.0330   -7.2500   27.2820 C   0  0  0  0  0  0  0  0  0  0  0  0
    6.7610   -2.6840   28.5970 C   0  0  0  0  0  0  0  0  0  0  0  0
    7.5760   -3.5560   27.6720 C   0  0  0  0  0  0  0  0  0  0  0  0
    8.0580   -4.8580   28.2250 C   0  0  0  0  0  0  0  0  0  0  0  0
    8.8510   -5.6960   27.3100 C   0  0  0  0  0  0  0  0  0  0  0  0
    9.1400   -5.2530   25.9180 C   0  0  0  0  0  0  0  0  0  0  0  0
    8.6030   -3.9330   25.4780 C   0  0  0  0  0  0  0  0  0  0  0  0
    8.9070   -3.2840   23.7100 Br  0  0  0  0  0  0  0  0  0  0  0  0
    7.8540   -3.1290   26.3510 C   0  0  0  0  0  0  0  0  0  0  0  0
    6.5170   -2.5990   23.2190 C   0  0  0  0  0  0  0  0  0  0  0  0
    7.3610   -3.0590   22.0670 C   0  0  0  0  0  0  0  0  0  0  0  0
  1  2  1  0
  2  3  2  0
  2  4  1  0
  4  5  1  0
  5  6  1  0
  6  7  1  0
  7  8  1  0
  8  9  2  0
  8 10  1  0
 10 11  1  0
 11 12  1  6
 12 13  1  0
 13 14  1  0
 14 15  1  0
 15 16  1  0
 11 17  1  0
 17 18  1  0
 18 19  2  0
 19 20  1  0
 20 21  2  0
 21 22  1  0
 22 23  1  0
 18 24  1  0
 22 24  2  0
  7 25  1  0
  4 26  1  0
 25 26  1  0
M  END
