piperidine-amides-24115-covalent
     RDKit          3D

 24 26  0  0  0  0  0  0  0  0999 V2000
    7.0700   -3.3900   19.3320 C   0  0  0  0  0  0  0  0  0  0  0  0
    6.3900   -4.2000   20.3510 C   0  0  0  0  0  0  0  0  0  0  0  0
    5.3650   -4.8180   19.9780 O   0  0  0  0  0  0  0  0  0  0  0  0
    6.9100   -4.3250   21.6680 N   0  0  0  0  0  0  0  0  0  0  0  0
    6.5760   -5.4520   22.4530 C   0  0  0  0  0  0  0  0  0  0  0  0
    6.3280   -5.0300   23.8200 C   0  0  0  0  0  0  0  0  0  0  0  0
    6.0490   -3.5780   23.9110 C   0  0  0  0  0  0  0  0  0  0  0  0
    5.5200   -3.1250   25.2520 C   0  0  0  0  0  0  0  0  0  0  0  0
    4.3150   -2.8340   25.3030 O   0  0  0  0  0  0  0  0  0  0  0  0
    6.2500   -3.0170   26.4680 N   0  0  0  0  0  0  0  0  0  0  0  0
    5.5380   -2.8790   27.6750 C   0  0  0  0  0  0  0  0  0  0  0  0
    5.1100   -4.1400   28.2660 C   0  0  2  0  0  0  0  0  0  0  0  0
    4.0520   -3.8530   29.3440 C   0  0  0  0  0  0  0  0  0  0  0  0
    4.4880   -2.7080   29.9650 O   0  0  0  0  0  0  0  0  0  0  0  0
    6.1370   -5.1060   28.6570 C   0  0  0  0  0  0  0  0  0  0  0  0
    7.2530   -5.0390   27.6290 C   0  0  0  0  0  0  0  0  0  0  0  0
    8.1350   -6.1540   27.9550 C   0  0  0  0  0  0  0  0  0  0  0  0
    9.2430   -6.0710   26.9130 C   0  0  0  0  0  0  0  0  0  0  0  0
    9.4540   -5.0990   25.8000 C   0  0  0  0  0  0  0  0  0  0  0  0
    8.4500   -4.0190   25.6100 C   0  0  0  0  0  0  0  0  0  0  0  0
    8.5980   -3.1100   24.6120 F   0  0  0  0  0  0  0  0  0  0  0  0
    7.2850   -3.9890   26.5670 C   0  0  0  0  0  0  0  0  0  0  0  0
    7.1210   -2.6900   23.3340 C   0  0  0  0  0  0  0  0  0  0  0  0
    7.7800   -3.3340   22.2700 C   0  0  0  0  0  0  0  0  0  0  0  0
  1  2  1  0
  2  3  2  0
  2  4  1  0
  4  5  1  0
  5  6  1  0
  6  7  1  0
  7  8  1  0
  8  9  2  0
  8 10  1  0
 10 11  1  0
 11 12  1  0
 12 13  1  1
 13 14  1  0
 12 15  1  0
 15 16  1  0
 16 17  2  0
 17 18  1  0
 18 19  2  0
 19 20  1  0
 20 21  1  0
 10 22  1  0
 16 22  1  0
 20 22  2  0
  7 23  1  0
  4 24  1  0
 23 24  1  0
M  END
