piperidine-amides-25997-covalent
     RDKit          3D

 24 25  0  0  0  0  0  0  0  0999 V2000
    7.0940   -3.2670   19.1650 C   0  0  0  0  0  0  0  0  0  0  0  0
    6.3130   -3.9880   20.1740 C   0  0  0  0  0  0  0  0  0  0  0  0
    5.2420   -4.5200   19.8580 O   0  0  0  0  0  0  0  0  0  0  0  0
    6.7780   -4.1370   21.4810 N   0  0  0  0  0  0  0  0  0  0  0  0
    7.7130   -3.2190   22.0910 C   0  0  0  0  0  0  0  0  0  0  0  0
    7.0960   -2.8080   23.3890 C   0  0  0  0  0  0  0  0  0  0  0  0
    6.7030   -3.9920   24.2200 C   0  0  0  0  0  0  0  0  0  0  0  0
    6.1120   -3.5490   25.4910 C   0  0  0  0  0  0  0  0  0  0  0  0
    4.8560   -3.5540   25.6760 O   0  0  0  0  0  0  0  0  0  0  0  0
    6.9410   -3.0800   26.5290 N   0  0  0  0  0  0  0  0  0  0  0  0
    7.5340   -1.7440   26.4150 C   0  0  0  0  0  0  0  0  0  0  0  0
    6.8260   -3.5830   27.8950 C   0  0  0  0  0  0  0  0  0  0  0  0
    6.8060   -2.4380   28.8250 C   0  0  0  0  0  0  0  0  0  0  0  0
    8.0360   -1.6460   29.1850 N   0  0  0  0  0  0  0  0  0  0  0  0
    7.4350   -0.6510   30.1300 C   0  0  0  0  0  0  0  0  0  0  0  0
    5.9900   -0.9150   30.2410 C   0  0  0  0  0  0  0  0  0  0  0  0
    5.2220   -0.0170   31.1440 C   0  0  0  0  0  0  0  0  0  0  0  0
    6.0680    0.5400   32.1000 F   0  0  0  0  0  0  0  0  0  0  0  0
    4.5270    0.9540   30.4910 F   0  0  0  0  0  0  0  0  0  0  0  0
    4.2420   -0.7150   31.8370 F   0  0  0  0  0  0  0  0  0  0  0  0
    5.7330   -1.9390   29.4680 N   0  0  0  0  0  0  0  0  0  0  0  0
    4.3550   -2.3760   29.4250 C   0  0  0  0  0  0  0  0  0  0  0  0
    5.7500   -4.9010   23.4860 C   0  0  0  0  0  0  0  0  0  0  0  0
    6.4490   -5.3390   22.2200 C   0  0  0  0  0  0  0  0  0  0  0  0
  1  2  1  0
  2  3  2  0
  2  4  1  0
  4  5  1  0
  5  6  1  0
  6  7  1  0
  7  8  1  0
  8  9  2  0
  8 10  1  0
 10 11  1  0
 10 12  1  0
 12 13  1  0
 13 14  2  0
 14 15  1  0
 15 16  2  0
 16 17  1  0
 17 18  1  0
 17 19  1  0
 17 20  1  0
 13 21  1  0
 16 21  1  0
 21 22  1  0
  7 23  1  0
  4 24  1  0
 23 24  1  0
M  END
