piperidine-amides-8672-covalent
     RDKit          3D

 23 24  0  0  0  0  0  0  0  0999 V2000
    7.0650   -3.2980   19.2960 C   0  0  0  0  0  0  0  0  0  0  0  0
    6.3720   -4.1090   20.2970 C   0  0  0  0  0  0  0  0  0  0  0  0
    5.3470   -4.7220   19.9470 O   0  0  0  0  0  0  0  0  0  0  0  0
    6.8870   -4.2200   21.6140 N   0  0  0  0  0  0  0  0  0  0  0  0
    7.6210   -3.1120   22.1730 C   0  0  0  0  0  0  0  0  0  0  0  0
    7.4210   -3.0570   23.6610 C   0  0  0  0  0  0  0  0  0  0  0  0
    6.0420   -3.6210   23.9300 C   0  0  0  0  0  0  0  0  0  0  0  0
    5.5520   -3.2940   25.3140 C   0  0  0  0  0  0  0  0  0  0  0  0
    4.3520   -3.0500   25.4070 O   0  0  0  0  0  0  0  0  0  0  0  0
    6.4470   -3.2820   26.3810 N   0  0  0  0  0  0  0  0  0  0  0  0
    6.0670   -3.6650   27.7090 C   0  0  0  0  0  0  0  0  0  0  0  0
    6.3120   -5.0050   28.0720 C   0  0  0  0  0  0  0  0  0  0  0  0
    5.4530   -5.7130   28.8750 C   0  0  0  0  0  0  0  0  0  0  0  0
    4.9720   -7.0020   28.7380 C   0  0  0  0  0  0  0  0  0  0  0  0
    4.0700   -7.4690   29.8360 C   0  0  0  0  0  0  0  0  0  0  0  0
    2.6510   -7.9760   29.4860 C   0  0  0  0  0  0  0  0  0  0  0  0
    1.7170   -8.4580   30.5490 C   0  0  0  0  0  0  0  0  0  0  0  0
    2.2140   -8.4300   31.9730 C   0  0  0  0  0  0  0  0  0  0  0  0
    1.0590   -9.0480   33.3820 Br  0  0  0  0  0  0  0  0  0  0  0  0
    3.6470   -7.9040   32.2140 C   0  0  0  0  0  0  0  0  0  0  0  0
    4.5300   -7.4540   31.2700 C   0  0  0  0  0  0  0  0  0  0  0  0
    6.1490   -5.1040   23.7520 C   0  0  0  0  0  0  0  0  0  0  0  0
    6.5560   -5.4220   22.3390 C   0  0  0  0  0  0  0  0  0  0  0  0
  1  2  1  0
  2  3  2  0
  2  4  1  0
  4  5  1  0
  5  6  1  0
  6  7  1  0
  7  8  1  0
  8  9  2  0
  8 10  1  0
 10 11  1  0
 11 12  1  0
 12 13  1  0
 13 14  2  3
 14 15  1  0
 15 16  2  0
 16 17  1  0
 17 18  2  0
 18 19  1  0
 18 20  1  0
 15 21  1  0
 20 21  2  0
  7 22  1  0
  4 23  1  0
 22 23  1  0
M  END
