piperidine-amides-5515-covalent
     RDKit          3D

 19 20  0  0  0  0  0  0  0  0999 V2000
    7.0970   -3.3050   19.2710 C   0  0  0  0  0  0  0  0  0  0  0  0
    6.3630   -4.0600   20.2830 C   0  0  0  0  0  0  0  0  0  0  0  0
    5.3450   -4.6890   19.9400 O   0  0  0  0  0  0  0  0  0  0  0  0
    6.8080   -4.1340   21.6140 N   0  0  0  0  0  0  0  0  0  0  0  0
    7.6380   -3.0870   22.1900 C   0  0  0  0  0  0  0  0  0  0  0  0
    7.2040   -2.9350   23.6260 C   0  0  0  0  0  0  0  0  0  0  0  0
    5.8840   -3.6050   23.8680 C   0  0  0  0  0  0  0  0  0  0  0  0
    5.2970   -3.4260   25.2180 C   0  0  0  0  0  0  0  0  0  0  0  0
    4.4630   -4.2620   25.6550 O   0  0  0  0  0  0  0  0  0  0  0  0
    5.5820   -2.3490   26.0780 N   0  0  0  0  0  0  0  0  0  0  0  0
    6.5980   -2.4960   27.1170 C   0  0  0  0  0  0  0  0  0  0  0  0
    6.1460   -1.8460   28.3630 C   0  0  0  0  0  0  0  0  0  0  0  0
    4.7960   -1.7730   28.9130 C   0  0  0  0  0  0  0  0  0  0  0  0
    4.7180   -0.9060   30.3990 S   0  0  0  0  0  0  0  0  0  0  0  0
    6.4180   -0.4910   30.5580 C   0  0  0  0  0  0  0  0  0  0  0  0
    7.2440    0.4260   31.8340 Cl  0  0  0  0  0  0  0  0  0  0  0  0
    7.0580   -1.1180   29.3080 C   0  0  0  0  0  0  0  0  0  0  0  0
    6.0140   -5.0650   23.5850 C   0  0  0  0  0  0  0  0  0  0  0  0
    6.4860   -5.3310   22.3300 C   0  0  0  0  0  0  0  0  0  0  0  0
  1  2  1  0
  2  3  2  0
  2  4  1  0
  4  5  1  0
  5  6  1  0
  6  7  1  0
  7  8  1  0
  8  9  2  0
  8 10  1  0
 10 11  1  0
 11 12  1  0
 12 13  2  0
 13 14  1  0
 14 15  1  0
 15 16  1  0
 12 17  1  0
 15 17  2  0
  7 18  1  0
  4 19  1  0
 18 19  1  0
M  END
