piperidine-amides-3590-covalent
     RDKit          3D

 19 20  0  0  0  0  0  0  0  0999 V2000
    7.1240   -3.2920   19.2160 C   0  0  0  0  0  0  0  0  0  0  0  0
    6.3790   -4.0530   20.2310 C   0  0  0  0  0  0  0  0  0  0  0  0
    5.2830   -4.5470   19.8800 O   0  0  0  0  0  0  0  0  0  0  0  0
    6.9090   -4.2670   21.5240 N   0  0  0  0  0  0  0  0  0  0  0  0
    7.5930   -3.1960   22.1570 C   0  0  0  0  0  0  0  0  0  0  0  0
    7.2460   -2.9390   23.5510 C   0  0  0  0  0  0  0  0  0  0  0  0
    6.5960   -4.0270   24.3260 C   0  0  0  0  0  0  0  0  0  0  0  0
    5.7150   -3.4500   25.3910 C   0  0  0  0  0  0  0  0  0  0  0  0
    4.5800   -3.0370   25.0850 O   0  0  0  0  0  0  0  0  0  0  0  0
    6.1330   -3.3660   26.7300 N   0  0  0  0  0  0  0  0  0  0  0  0
    6.0080   -2.2570   27.5970 C   0  0  0  0  0  0  0  0  0  0  0  0
    4.8620   -1.3530   27.6250 C   0  0  0  0  0  0  0  0  0  0  0  0
    3.9660   -1.6920   28.8330 C   0  0  0  0  0  0  0  0  0  0  0  0
    2.7870   -1.0250   28.5860 O   0  0  0  0  0  0  0  0  0  0  0  0
    7.2000   -1.3770   27.6090 C   0  0  0  0  0  0  0  0  0  0  0  0
    7.7860   -1.6630   28.9730 C   0  0  0  0  0  0  0  0  0  0  0  0
    6.5430   -2.5230   28.9780 C   0  0  0  0  0  0  0  0  0  0  0  0
    5.7470   -4.9650   23.4550 C   0  0  0  0  0  0  0  0  0  0  0  0
    6.6010   -5.4280   22.3070 C   0  0  0  0  0  0  0  0  0  0  0  0
  1  2  1  0
  2  3  2  0
  2  4  1  0
  4  5  1  0
  5  6  1  0
  6  7  1  0
  7  8  1  0
  8  9  2  0
  8 10  1  0
 11 10  1  0
 11 12  1  0
 12 13  1  0
 13 14  1  0
 11 15  1  0
 15 16  1  0
 11 17  1  0
 16 17  1  0
  7 18  1  0
  4 19  1  0
 18 19  1  0
M  END
