piperidine-amides-1989-covalent
     RDKit          3D

 19 21  0  0  0  0  0  0  0  0999 V2000
    7.0790   -3.3510   19.3270 C   0  0  0  0  0  0  0  0  0  0  0  0
    6.3750   -4.1580   20.3490 C   0  0  0  0  0  0  0  0  0  0  0  0
    5.3820   -4.7850   19.9750 O   0  0  0  0  0  0  0  0  0  0  0  0
    6.8820   -4.2180   21.6510 N   0  0  0  0  0  0  0  0  0  0  0  0
    7.7280   -3.1610   22.1860 C   0  0  0  0  0  0  0  0  0  0  0  0
    7.5370   -2.9930   23.6710 C   0  0  0  0  0  0  0  0  0  0  0  0
    6.2000   -3.5950   24.0790 C   0  0  0  0  0  0  0  0  0  0  0  0
    5.9290   -3.3370   25.5110 C   0  0  0  0  0  0  0  0  0  0  0  0
    5.0130   -3.9700   26.0440 O   0  0  0  0  0  0  0  0  0  0  0  0
    6.6310   -2.3780   26.2840 N   0  0  0  0  0  0  0  0  0  0  0  0
    5.7620   -1.5230   27.0660 C   0  0  2  0  0  0  0  0  0  0  0  0
    5.7100   -0.1160   26.5180 C   0  0  0  0  0  0  0  0  0  0  0  0
    5.5200    0.8250   27.4990 C   0  0  0  0  0  0  0  0  0  0  0  0
    5.6470    0.1870   28.6880 C   0  0  2  0  0  0  0  0  0  0  0  0
    6.8430    0.1710   29.2100 C   0  0  0  0  0  0  0  0  0  0  0  0
    7.4000   -1.0770   28.7170 C   0  0  0  0  0  0  0  0  0  0  0  0
    5.9060   -1.3160   28.5610 C   0  0  2  0  0  0  0  0  0  0  0  0
    6.1100   -5.0420   23.7870 C   0  0  0  0  0  0  0  0  0  0  0  0
    6.5790   -5.3880   22.4230 C   0  0  0  0  0  0  0  0  0  0  0  0
  1  2  1  0
  2  3  2  0
  2  4  1  0
  4  5  1  0
  5  6  1  0
  6  7  1  0
  7  8  1  0
  8  9  2  0
  8 10  1  0
 11 10  1  6
 11 12  1  0
 12 13  1  0
 14 13  1  6
 14 15  1  0
 15 16  1  0
 11 17  1  0
 14 17  1  0
 17 16  1  6
  7 18  1  0
  4 19  1  0
 18 19  1  0
M  END
