piperidine-amides-5050-covalent
     RDKit          3D

 22 23  0  0  0  0  0  0  0  0999 V2000
    7.0820   -3.3270   19.2800 C   0  0  0  0  0  0  0  0  0  0  0  0
    6.3390   -4.0700   20.3240 C   0  0  0  0  0  0  0  0  0  0  0  0
    5.3140   -4.6620   19.9330 O   0  0  0  0  0  0  0  0  0  0  0  0
    6.8060   -4.1370   21.6560 N   0  0  0  0  0  0  0  0  0  0  0  0
    6.5850   -5.3290   22.4080 C   0  0  0  0  0  0  0  0  0  0  0  0
    6.0400   -5.0410   23.7300 C   0  0  0  0  0  0  0  0  0  0  0  0
    6.0500   -3.5950   24.0170 C   0  0  0  0  0  0  0  0  0  0  0  0
    5.5230   -3.2870   25.3820 C   0  0  0  0  0  0  0  0  0  0  0  0
    4.2840   -3.2340   25.4860 O   0  0  0  0  0  0  0  0  0  0  0  0
    6.3210   -3.0570   26.5300 N   0  0  0  0  0  0  0  0  0  0  0  0
    6.3270   -3.9530   27.7220 C   0  0  0  0  0  0  0  0  0  0  0  0
    5.1660   -3.8130   28.6450 C   0  0  0  0  0  0  0  0  0  0  0  0
    4.2940   -2.6920   28.7140 N   0  0  0  0  0  0  0  0  0  0  0  0
    3.2510   -2.7940   29.6890 C   0  0  0  0  0  0  0  0  0  0  0  0
    2.3500   -1.7720   29.8510 C   0  0  0  0  0  0  0  0  0  0  0  0
    3.1240   -4.0420   30.5640 C   0  0  0  0  0  0  0  0  0  0  0  0
    3.9790   -5.0880   30.4640 C   0  0  0  0  0  0  0  0  0  0  0  0
    5.0000   -5.0390   29.5480 C   0  0  0  0  0  0  0  0  0  0  0  0
    5.8320   -5.9510   29.3980 O   0  0  0  0  0  0  0  0  0  0  0  0
    5.3460   -7.0150   28.7010 C   0  0  0  0  0  0  0  0  0  0  0  0
    7.4100   -3.0270   23.7080 C   0  0  0  0  0  0  0  0  0  0  0  0
    7.6810   -3.1120   22.2350 C   0  0  0  0  0  0  0  0  0  0  0  0
  1  2  1  0
  2  3  2  0
  2  4  1  0
  4  5  1  0
  5  6  1  0
  6  7  1  0
  7  8  1  0
  8  9  2  0
  8 10  1  0
 10 11  1  0
 11 12  1  0
 12 13  2  0
 13 14  1  0
 14 15  1  0
 14 16  2  0
 16 17  1  0
 12 18  1  0
 17 18  2  0
 18 19  1  0
 19 20  1  0
  7 21  1  0
  4 22  1  0
 21 22  1  0
M  END
