piperidine-amides-25369-covalent
     RDKit          3D

 25 27  0  0  0  0  0  0  0  0999 V2000
    7.0070   -3.3990   19.4640 C   0  0  0  0  0  0  0  0  0  0  0  0
    6.3670   -4.3170   20.4450 C   0  0  0  0  0  0  0  0  0  0  0  0
    5.4240   -4.9810   20.0150 O   0  0  0  0  0  0  0  0  0  0  0  0
    6.8530   -4.4310   21.7640 N   0  0  0  0  0  0  0  0  0  0  0  0
    6.5630   -5.6070   22.5640 C   0  0  0  0  0  0  0  0  0  0  0  0
    6.1280   -5.2250   23.9730 C   0  0  0  0  0  0  0  0  0  0  0  0
    5.9900   -3.7050   24.0810 C   0  0  0  0  0  0  0  0  0  0  0  0
    5.4340   -3.1850   25.3770 C   0  0  0  0  0  0  0  0  0  0  0  0
    4.9280   -2.0650   25.3260 O   0  0  0  0  0  0  0  0  0  0  0  0
    5.3820   -3.8200   26.6550 N   0  0  0  0  0  0  0  0  0  0  0  0
    6.4100   -3.5050   27.5510 C   0  0  0  0  0  0  0  0  0  0  0  0
    6.6240   -4.7670   28.3710 C   0  0  0  0  0  0  0  0  0  0  0  0
    5.6460   -5.2360   29.1350 C   0  0  0  0  0  0  0  0  0  0  0  0
    5.6740   -6.1550   30.1640 C   0  0  0  0  0  0  0  0  0  0  0  0
    4.6270   -6.6500   30.9790 C   0  0  0  0  0  0  0  0  0  0  0  0
    4.6860   -7.6610   32.1030 C   0  0  0  0  0  0  0  0  0  0  0  0
    4.0740   -6.7500   33.1170 C   0  0  0  0  0  0  0  0  0  0  0  0
    2.7700   -7.4500   33.4040 C   0  0  0  0  0  0  0  0  0  0  0  0
    3.2390   -8.7040   34.0680 C   0  0  0  0  0  0  0  0  0  0  0  0
    3.3030   -6.0130   30.5780 C   0  0  0  0  0  0  0  0  0  0  0  0
    3.1810   -5.0200   29.4740 C   0  0  0  0  0  0  0  0  0  0  0  0
    4.3360   -4.6100   28.7240 C   0  0  0  0  0  0  0  0  0  0  0  0
    4.2830   -3.6160   27.5730 C   0  0  0  0  0  0  0  0  0  0  0  0
    7.3310   -3.1060   23.7530 C   0  0  0  0  0  0  0  0  0  0  0  0
    7.6320   -3.3390   22.2960 C   0  0  0  0  0  0  0  0  0  0  0  0
  1  2  1  0
  2  3  2  0
  2  4  1  0
  4  5  1  0
  5  6  1  0
  6  7  1  0
  7  8  1  0
  8  9  2  0
  8 10  1  0
 10 11  1  0
 11 12  1  0
 12 13  1  0
 13 14  2  0
 14 15  1  0
 15 16  1  0
 16 17  1  0
 17 18  1  0
 18 19  1  0
 15 20  2  0
 20 21  1  0
 13 22  1  0
 21 22  2  0
 10 23  1  0
 22 23  1  0
  7 24  1  0
  4 25  1  0
 24 25  1  0
M  END
