piperidine-amides-17190-covalent
     RDKit          3D

 20 21  0  0  0  0  0  0  0  0999 V2000
    7.0160   -3.3790   19.4320 C   0  0  0  0  0  0  0  0  0  0  0  0
    6.3840   -4.2730   20.4260 C   0  0  0  0  0  0  0  0  0  0  0  0
    5.4180   -4.9630   20.0120 O   0  0  0  0  0  0  0  0  0  0  0  0
    6.8750   -4.3610   21.7630 N   0  0  0  0  0  0  0  0  0  0  0  0
    6.5320   -5.4950   22.5760 C   0  0  0  0  0  0  0  0  0  0  0  0
    6.0910   -5.1570   23.9390 C   0  0  0  0  0  0  0  0  0  0  0  0
    6.1750   -3.7140   24.2180 C   0  0  0  0  0  0  0  0  0  0  0  0
    5.6620   -3.2130   25.5670 C   0  0  0  0  0  0  0  0  0  0  0  0
    5.2710   -2.0370   25.5890 O   0  0  0  0  0  0  0  0  0  0  0  0
    5.5240   -3.9280   26.7990 N   0  0  0  0  0  0  0  0  0  0  0  0
    6.3750   -3.9100   27.9010 C   0  0  0  0  0  0  0  0  0  0  0  0
    6.6940   -5.1930   28.5190 C   0  0  0  0  0  0  0  0  0  0  0  0
    5.3200   -5.6900   28.7950 C   0  0  0  0  0  0  0  0  0  0  0  0
    5.0760   -6.1410   30.0880 C   0  0  1  0  0  0  0  0  0  0  0  0
    3.7290   -5.4310   30.2510 C   0  0  0  0  0  0  0  0  0  0  0  0
    4.9060   -7.4940   30.2690 O   0  0  0  0  0  0  0  0  0  0  0  0
    4.3560   -4.5850   28.7630 C   0  0  0  0  0  0  0  0  0  0  0  0
    4.1870   -4.0200   27.3180 C   0  0  0  0  0  0  0  0  0  0  0  0
    7.5120   -3.1450   23.8260 C   0  0  0  0  0  0  0  0  0  0  0  0
    7.6650   -3.2660   22.3140 C   0  0  0  0  0  0  0  0  0  0  0  0
  1  2  1  0
  2  3  2  0
  2  4  1  0
  4  5  1  0
  5  6  1  0
  6  7  1  0
  7  8  1  0
  8  9  2  0
  8 10  1  0
 10 11  1  0
 11 12  1  0
 12 13  1  0
 13 14  1  0
 14 15  1  6
 14 16  1  0
 13 17  1  0
 10 18  1  0
 17 18  1  0
  7 19  1  0
  4 20  1  0
 19 20  1  0
M  END
