piperidine-amides-32792-covalent
     RDKit          3D

 28 30  0  0  0  0  0  0  0  0999 V2000
    7.1020   -3.3240   19.3050 C   0  0  0  0  0  0  0  0  0  0  0  0
    6.3950   -4.1770   20.2950 C   0  0  0  0  0  0  0  0  0  0  0  0
    5.3530   -4.7640   19.9580 O   0  0  0  0  0  0  0  0  0  0  0  0
    6.9540   -4.3410   21.5750 N   0  0  0  0  0  0  0  0  0  0  0  0
    7.7730   -3.3200   22.1800 C   0  0  0  0  0  0  0  0  0  0  0  0
    6.9520   -2.7360   23.3180 C   0  0  0  0  0  0  0  0  0  0  0  0
    6.6190   -3.8610   24.2390 C   0  0  0  0  0  0  0  0  0  0  0  0
    5.9150   -3.3700   25.4380 C   0  0  0  0  0  0  0  0  0  0  0  0
    4.6750   -3.3480   25.3920 O   0  0  0  0  0  0  0  0  0  0  0  0
    6.6680   -2.9440   26.5360 N   0  0  0  0  0  0  0  0  0  0  0  0
    7.9460   -3.4400   26.8940 C   0  0  0  0  0  0  0  0  0  0  0  0
    8.1570   -4.3790   27.8660 C   0  0  0  0  0  0  0  0  0  0  0  0
    7.0710   -4.9690   28.5170 C   0  0  0  0  0  0  0  0  0  0  0  0
    7.1030   -6.3070   28.7430 C   0  0  0  0  0  0  0  0  0  0  0  0
    5.9920   -7.0130   29.4280 C   0  0  0  0  0  0  0  0  0  0  0  0
    4.7490   -6.2740   29.9190 C   0  0  0  0  0  0  0  0  0  0  0  0
    3.3670   -7.0080   30.7440 Cl  0  0  0  0  0  0  0  0  0  0  0  0
    4.8940   -4.7910   29.5800 C   0  0  0  0  0  0  0  0  0  0  0  0
    5.9850   -4.2400   28.9330 C   0  0  0  0  0  0  0  0  0  0  0  0
    6.4510   -1.6700   27.2510 C   0  0  0  0  0  0  0  0  0  0  0  0
    7.2540   -1.5090   28.5660 C   0  0  0  0  0  0  0  0  0  0  0  0
    7.2480   -0.4370   29.4480 C   0  0  0  0  0  0  0  0  0  0  0  0
    6.2460    0.2090   28.4970 C   0  0  0  0  0  0  0  0  0  0  0  0
    6.5000   -1.0990   27.8030 C   0  0  0  0  0  0  0  0  0  0  0  0
    5.4350    0.4250   27.4750 N   0  0  0  0  0  0  0  0  0  0  0  0
    5.6000   -0.7030   26.7940 N   0  0  0  0  0  0  0  0  0  0  0  0
    5.7570   -4.9100   23.5620 C   0  0  0  0  0  0  0  0  0  0  0  0
    6.5000   -5.4590   22.3970 C   0  0  0  0  0  0  0  0  0  0  0  0
  1  2  1  0
  2  3  2  0
  2  4  1  0
  4  5  1  0
  5  6  1  0
  6  7  1  0
  7  8  1  0
  8  9  2  0
  8 10  1  0
 10 11  1  0
 11 12  1  0
 12 13  1  0
 13 14  2  0
 14 15  1  0
 15 16  2  0
 16 17  1  0
 16 18  1  0
 13 19  1  0
 18 19  2  0
 10 20  1  0
 20 21  2  0
 21 22  1  0
 22 23  2  0
 23 24  1  0
 23 25  1  0
 20 26  1  0
 25 26  2  0
  7 27  1  0
  4 28  1  0
 27 28  1  0
M  END
