piperidine-amides-33475-covalent
     RDKit          3D

 30 33  0  0  0  0  0  0  0  0999 V2000
    7.1110   -3.3450   19.3310 C   0  0  0  0  0  0  0  0  0  0  0  0
    6.4400   -4.1940   20.3280 C   0  0  0  0  0  0  0  0  0  0  0  0
    5.3820   -4.7620   19.9670 O   0  0  0  0  0  0  0  0  0  0  0  0
    6.9950   -4.4050   21.6200 N   0  0  0  0  0  0  0  0  0  0  0  0
    6.3270   -5.3320   22.4490 C   0  0  0  0  0  0  0  0  0  0  0  0
    5.6390   -4.7130   23.5850 C   0  0  0  0  0  0  0  0  0  0  0  0
    6.3020   -3.5450   24.2420 C   0  0  0  0  0  0  0  0  0  0  0  0
    5.3410   -2.8290   25.1560 C   0  0  0  0  0  0  0  0  0  0  0  0
    4.2090   -2.5400   24.7310 O   0  0  0  0  0  0  0  0  0  0  0  0
    5.6690   -2.4860   26.4850 N   0  0  0  0  0  0  0  0  0  0  0  0
    5.6490   -3.3860   27.5330 C   0  0  0  0  0  0  0  0  0  0  0  0
    6.6880   -4.3060   27.4740 C   0  0  0  0  0  0  0  0  0  0  0  0
    7.5190   -3.9410   26.2750 C   0  0  0  0  0  0  0  0  0  0  0  0
    8.5880   -4.6200   25.8910 C   0  0  0  0  0  0  0  0  0  0  0  0
    8.9370   -5.8100   26.7500 C   0  0  0  0  0  0  0  0  0  0  0  0
   10.0240   -6.4400   26.2690 F   0  0  0  0  0  0  0  0  0  0  0  0
    8.0990   -6.1500   27.9630 C   0  0  0  0  0  0  0  0  0  0  0  0
    6.8780   -5.3680   28.3880 C   0  0  0  0  0  0  0  0  0  0  0  0
    5.9620   -1.2690   27.1180 C   0  0  0  0  0  0  0  0  0  0  0  0
    6.7190   -1.3230   28.4440 C   0  0  0  0  0  0  0  0  0  0  0  0
    7.0690   -0.0700   29.2520 C   0  0  0  0  0  0  0  0  0  0  0  0
    6.6170    1.2060   28.6310 C   0  0  0  0  0  0  0  0  0  0  0  0
    6.6750    2.5820   28.9390 N   0  0  0  0  0  0  0  0  0  0  0  0
    6.0960    3.3920   27.9490 C   0  0  0  0  0  0  0  0  0  0  0  0
    6.0440    4.7880   27.9450 O   0  0  0  0  0  0  0  0  0  0  0  0
    5.5910    2.4980   26.9650 N   0  0  0  0  0  0  0  0  0  0  0  0
    5.9480    1.1710   27.4220 C   0  0  0  0  0  0  0  0  0  0  0  0
    5.5980   -0.0500   26.6280 C   0  0  0  0  0  0  0  0  0  0  0  0
    6.9260   -2.5980   23.2640 C   0  0  0  0  0  0  0  0  0  0  0  0
    7.7310   -3.3350   22.2180 C   0  0  0  0  0  0  0  0  0  0  0  0
  1  2  1  0
  2  3  2  0
  2  4  1  0
  4  5  1  0
  5  6  1  0
  6  7  1  0
  7  8  1  0
  8  9  2  0
  8 10  1  0
 10 11  1  0
 11 12  1  0
 12 13  2  0
 13 14  1  0
 14 15  2  0
 15 16  1  0
 15 17  1  0
 12 18  1  0
 17 18  2  0
 10 19  1  0
 19 20  2  0
 20 21  1  0
 21 22  2  0
 22 23  1  0
 23 24  1  0
 24 25  2  0
 24 26  1  0
 22 27  1  0
 26 27  1  0
 19 28  1  0
 27 28  2  0
  7 29  1  0
  4 30  1  0
 29 30  1  0
M  END
