piperidine-amides-5043-covalent
     RDKit          3D

 22 24  0  0  0  0  0  0  0  0999 V2000
    7.1580   -3.2990   19.2640 C   0  0  0  0  0  0  0  0  0  0  0  0
    6.3930   -4.0510   20.2760 C   0  0  0  0  0  0  0  0  0  0  0  0
    5.3150   -4.5500   19.8970 O   0  0  0  0  0  0  0  0  0  0  0  0
    6.9050   -4.2260   21.5740 N   0  0  0  0  0  0  0  0  0  0  0  0
    6.5550   -5.3730   22.3390 C   0  0  0  0  0  0  0  0  0  0  0  0
    6.0050   -5.0050   23.6380 C   0  0  0  0  0  0  0  0  0  0  0  0
    6.1500   -3.5600   23.9130 C   0  0  0  0  0  0  0  0  0  0  0  0
    5.7290   -3.2310   25.2980 C   0  0  0  0  0  0  0  0  0  0  0  0
    4.5090   -3.1990   25.5410 O   0  0  0  0  0  0  0  0  0  0  0  0
    6.6590   -2.9500   26.3060 N   0  0  0  0  0  0  0  0  0  0  0  0
    6.3330   -2.9440   27.7510 C   0  0  0  0  0  0  0  0  0  0  0  0
    5.7650   -4.2260   28.2610 C   0  0  0  0  0  0  0  0  0  0  0  0
    4.4560   -4.2200   28.9010 C   0  0  0  0  0  0  0  0  0  0  0  0
    4.2740   -5.5560   29.2350 N   0  0  0  0  0  0  0  0  0  0  0  0
    5.3090   -6.3820   28.8820 C   0  0  0  0  0  0  0  0  0  0  0  0
    6.2330   -5.5400   28.2700 N   0  0  0  0  0  0  0  0  0  0  0  0
    5.2960   -7.7130   29.1400 C   0  0  0  0  0  0  0  0  0  0  0  0
    4.4150   -7.9620   30.0640 O   0  0  0  0  0  0  0  0  0  0  0  0
    3.5920   -7.0400   30.7040 C   0  0  0  0  0  0  0  0  0  0  0  0
    3.1070   -6.0360   29.8980 C   0  0  0  0  0  0  0  0  0  0  0  0
    7.4690   -2.9940   23.5330 C   0  0  0  0  0  0  0  0  0  0  0  0
    7.7270   -3.1830   22.1700 C   0  0  0  0  0  0  0  0  0  0  0  0
  1  2  1  0
  2  3  2  0
  2  4  1  0
  4  5  1  0
  5  6  1  0
  6  7  1  0
  7  8  1  0
  8  9  2  0
  8 10  1  0
 10 11  1  0
 11 12  1  0
 12 13  2  0
 13 14  1  0
 14 15  1  0
 12 16  1  0
 15 16  2  0
 15 17  1  0
 17 18  1  0
 18 19  1  0
 14 20  1  0
 19 20  1  0
  7 21  1  0
  4 22  1  0
 21 22  1  0
M  END
