piperidine-amides-12964-covalent
     RDKit          3D

 21 22  0  0  0  0  0  0  0  0999 V2000
    7.0600   -3.3100   19.2390 C   0  0  0  0  0  0  0  0  0  0  0  0
    6.3710   -4.0900   20.2960 C   0  0  0  0  0  0  0  0  0  0  0  0
    5.3390   -4.6970   19.9410 O   0  0  0  0  0  0  0  0  0  0  0  0
    6.8840   -4.1750   21.6050 N   0  0  0  0  0  0  0  0  0  0  0  0
    6.6140   -5.3410   22.3820 C   0  0  0  0  0  0  0  0  0  0  0  0
    6.0330   -5.0200   23.6820 C   0  0  0  0  0  0  0  0  0  0  0  0
    6.0690   -3.5730   23.9680 C   0  0  0  0  0  0  0  0  0  0  0  0
    5.5880   -3.2550   25.3400 C   0  0  0  0  0  0  0  0  0  0  0  0
    4.3800   -2.9900   25.4710 O   0  0  0  0  0  0  0  0  0  0  0  0
    6.4260   -3.2440   26.4680 N   0  0  0  0  0  0  0  0  0  0  0  0
    6.1500   -4.0700   27.6750 C   0  0  0  0  0  0  0  0  0  0  0  0
    5.8570   -5.5020   27.3410 C   0  0  0  0  0  0  0  0  0  0  0  0
    5.2510   -6.3070   28.3790 C   0  0  0  0  0  0  0  0  0  0  0  0
    5.7280   -6.4320   29.6530 C   0  0  0  0  0  0  0  0  0  0  0  0
    5.0640   -7.2170   30.5390 C   0  0  0  0  0  0  0  0  0  0  0  0
    5.4130   -7.4430   31.8280 C   0  0  0  0  0  0  0  0  0  0  0  0
    3.7020   -7.8750   29.7250 S   0  0  0  0  0  0  0  0  0  0  0  0
    4.1050   -7.0320   28.1350 C   0  0  0  0  0  0  0  0  0  0  0  0
    3.2390   -7.2870   27.1140 C   0  0  0  0  0  0  0  0  0  0  0  0
    7.4420   -3.0330   23.6690 C   0  0  0  0  0  0  0  0  0  0  0  0
    7.6990   -3.1190   22.2030 C   0  0  0  0  0  0  0  0  0  0  0  0
  1  2  1  0
  2  3  2  0
  2  4  1  0
  4  5  1  0
  5  6  1  0
  6  7  1  0
  7  8  1  0
  8  9  2  0
  8 10  1  0
 10 11  1  0
 11 12  1  0
 12 13  1  0
 13 14  1  0
 14 15  2  0
 15 16  1  0
 15 17  1  0
 13 18  2  0
 17 18  1  0
 18 19  1  0
  7 20  1  0
  4 21  1  0
 20 21  1  0
M  END
