piperidine-amides-6309-covalent
     RDKit          3D

 26 28  0  0  0  0  0  0  0  0999 V2000
    7.2470   -3.1600   18.8930 C   0  0  0  0  0  0  0  0  0  0  0  0
    6.2770   -3.7830   19.8020 C   0  0  0  0  0  0  0  0  0  0  0  0
    5.0870   -3.9890   19.5060 O   0  0  0  0  0  0  0  0  0  0  0  0
    6.7020   -4.1570   21.0410 N   0  0  0  0  0  0  0  0  0  0  0  0
    7.2290   -3.0100   21.7240 C   0  0  0  0  0  0  0  0  0  0  0  0
    5.9570   -2.4090   22.2800 C   0  0  0  0  0  0  0  0  0  0  0  0
    5.5440   -3.4240   23.3130 C   0  0  0  0  0  0  0  0  0  0  0  0
    4.7100   -2.7490   24.2950 C   0  0  0  0  0  0  0  0  0  0  0  0
    3.5620   -3.1220   24.6000 O   0  0  0  0  0  0  0  0  0  0  0  0
    5.4000   -1.6780   24.8500 N   0  0  0  0  0  0  0  0  0  0  0  0
    6.7790   -1.9890   24.8230 C   0  0  0  0  0  0  0  0  0  0  0  0
    6.9210   -3.4720   24.2670 C   0  0  0  0  0  0  0  0  0  0  0  0
    7.2100   -4.5180   23.5880 C   0  0  0  0  0  0  0  0  0  0  0  0
    6.6000   -5.2200   24.3630 C   0  0  0  0  0  0  0  0  0  0  0  0
    6.4530   -3.7690   24.8670 C   0  0  0  0  0  0  0  0  0  0  0  0
    5.6970   -3.6530   26.0190 C   0  0  0  0  0  0  0  0  0  0  0  0
    4.8610   -2.6250   26.2910 O   0  0  0  0  0  0  0  0  0  0  0  0
    5.7160   -4.5660   26.9710 N   0  0  0  0  0  0  0  0  0  0  0  0
    5.1010   -4.1040   28.0250 C   0  0  0  0  0  0  0  0  0  0  0  0
    6.0020   -4.8430   28.9580 C   0  0  0  0  0  0  0  0  0  0  0  0
    6.7320   -6.0160   28.3320 C   0  0  0  0  0  0  0  0  0  0  0  0
    6.9720   -4.7970   27.5780 C   0  0  0  0  0  0  0  0  0  0  0  0
    6.9830   -2.3910   24.3280 C   0  0  0  0  0  0  0  0  0  0  0  0
    7.5880   -2.9860   23.3050 C   0  0  0  0  0  0  0  0  0  0  0  0
    4.9370   -4.6580   22.7180 C   0  0  0  0  0  0  0  0  0  0  0  0
    5.9250   -5.1980   21.6940 C   0  0  0  0  0  0  0  0  0  0  0  0
  1  2  1  0
  2  3  2  0
  2  4  1  0
  4  5  1  0
  5  6  1  0
  6  7  1  0
  7  8  1  0
  8  9  2  0
  8 10  1  0
 10 11  1  0
 11 12  1  0
 12 13  2  0
 13 14  1  0
 14 15  2  0
 15 16  1  0
 16 17  2  0
 16 18  1  0
 18 19  1  0
 19 20  1  0
 20 21  1  0
 18 22  1  0
 21 22  1  0
 15 23  1  0
 12 24  1  0
 23 24  2  0
  7 25  1  0
  4 26  1  0
 25 26  1  0
M  END
