piperidine-amides-14866-covalent
     RDKit          3D

 23 24  0  0  0  0  0  0  0  0999 V2000
    7.0820   -3.3000   19.2710 C   0  0  0  0  0  0  0  0  0  0  0  0
    6.3620   -4.1300   20.2450 C   0  0  0  0  0  0  0  0  0  0  0  0
    5.2790   -4.6240   19.9020 O   0  0  0  0  0  0  0  0  0  0  0  0
    6.9130   -4.4030   21.5170 N   0  0  0  0  0  0  0  0  0  0  0  0
    7.6910   -3.3870   22.1560 C   0  0  0  0  0  0  0  0  0  0  0  0
    6.8150   -2.6920   23.1260 C   0  0  0  0  0  0  0  0  0  0  0  0
    6.3560   -3.7820   24.0560 C   0  0  0  0  0  0  0  0  0  0  0  0
    5.4350   -3.1610   25.0520 C   0  0  0  0  0  0  0  0  0  0  0  0
    4.4130   -3.7620   25.3550 O   0  0  0  0  0  0  0  0  0  0  0  0
    5.8340   -1.9320   25.5520 N   0  0  0  0  0  0  0  0  0  0  0  0
    7.1130   -1.8270   26.1130 C   0  0  0  0  0  0  0  0  0  0  0  0
    8.1750   -1.6310   25.1910 C   0  0  0  0  0  0  0  0  0  0  0  0
    8.8280   -2.7320   24.6390 C   0  0  0  0  0  0  0  0  0  0  0  0
    9.8840   -2.7140   23.7310 C   0  0  0  0  0  0  0  0  0  0  0  0
   10.3960   -1.4040   23.2720 C   0  0  0  0  0  0  0  0  0  0  0  0
    9.7080   -0.1850   23.8550 C   0  0  0  0  0  0  0  0  0  0  0  0
   10.1420    0.9180   23.4750 O   0  0  0  0  0  0  0  0  0  0  0  0
   11.4970    1.0060   23.6740 C   0  0  0  0  0  0  0  0  0  0  0  0
   12.1840    0.8560   22.4890 F   0  0  0  0  0  0  0  0  0  0  0  0
   11.8310    0.0300   24.5660 F   0  0  0  0  0  0  0  0  0  0  0  0
    8.5820   -0.3420   24.8290 C   0  0  0  0  0  0  0  0  0  0  0  0
    5.6740   -4.9140   23.3980 C   0  0  0  0  0  0  0  0  0  0  0  0
    6.3940   -5.4670   22.3510 C   0  0  0  0  0  0  0  0  0  0  0  0
  1  2  1  0
  2  3  2  0
  2  4  1  0
  4  5  1  0
  5  6  1  0
  6  7  1  0
  7  8  1  0
  8  9  2  0
  8 10  1  0
 10 11  1  0
 11 12  1  0
 12 13  2  0
 13 14  1  0
 14 15  2  0
 15 16  1  0
 16 17  1  0
 17 18  1  0
 18 19  1  0
 18 20  1  0
 12 21  1  0
 16 21  2  0
  7 22  1  0
  4 23  1  0
 22 23  1  0
M  END
