piperidine-amides-9164-covalent
     RDKit          3D

 20 22  0  0  0  0  0  0  0  0999 V2000
    7.0910   -3.2660   19.1960 C   0  0  0  0  0  0  0  0  0  0  0  0
    6.3470   -4.0100   20.2200 C   0  0  0  0  0  0  0  0  0  0  0  0
    5.2940   -4.5850   19.8970 O   0  0  0  0  0  0  0  0  0  0  0  0
    6.8220   -4.1270   21.5390 N   0  0  0  0  0  0  0  0  0  0  0  0
    7.7380   -3.1810   22.1390 C   0  0  0  0  0  0  0  0  0  0  0  0
    7.0950   -2.7200   23.4160 C   0  0  0  0  0  0  0  0  0  0  0  0
    6.7130   -3.8600   24.3100 C   0  0  0  0  0  0  0  0  0  0  0  0
    6.0060   -3.3600   25.5120 C   0  0  0  0  0  0  0  0  0  0  0  0
    4.7400   -3.4260   25.5940 O   0  0  0  0  0  0  0  0  0  0  0  0
    6.6960   -2.7740   26.6010 N   0  0  0  0  0  0  0  0  0  0  0  0
    6.6980   -1.3030   26.7690 C   0  0  2  0  0  0  0  0  0  0  0  0
    7.9960   -0.8020   27.1200 C   0  0  0  0  0  0  0  0  0  0  0  0
    7.4600   -0.3500   28.3740 C   0  0  0  0  0  0  0  0  0  0  0  0
    7.6550    1.1400   28.5530 C   0  0  0  0  0  0  0  0  0  0  0  0
    8.2620    0.9490   29.9370 C   0  0  2  0  0  0  0  0  0  0  0  0
    9.6550    1.1730   29.8940 O   0  0  0  0  0  0  0  0  0  0  0  0
    8.0770   -0.5110   29.7740 C   0  0  0  0  0  0  0  0  0  0  0  0
    6.1240   -0.8140   28.1640 C   0  0  0  0  0  0  0  0  0  0  0  0
    5.8470   -4.8740   23.5930 C   0  0  0  0  0  0  0  0  0  0  0  0
    6.5210   -5.3150   22.3110 C   0  0  0  0  0  0  0  0  0  0  0  0
  1  2  1  0
  2  3  2  0
  2  4  1  0
  4  5  1  0
  5  6  1  0
  6  7  1  0
  7  8  1  0
  8  9  2  0
  8 10  1  0
 11 10  1  1
 11 12  1  0
 13 12  1  0
 13 14  1  0
 14 15  1  0
 15 16  1  6
 13 17  1  0
 15 17  1  0
 11 18  1  0
 13 18  1  0
  7 19  1  0
  4 20  1  0
 19 20  1  0
M  END
