piperidine-amides-9326-covalent
     RDKit          3D

 19 20  0  0  0  0  0  0  0  0999 V2000
    7.0840   -3.3000   19.2700 C   0  0  0  0  0  0  0  0  0  0  0  0
    6.3720   -4.0690   20.2960 C   0  0  0  0  0  0  0  0  0  0  0  0
    5.3720   -4.7300   19.9560 O   0  0  0  0  0  0  0  0  0  0  0  0
    6.8230   -4.1030   21.6310 N   0  0  0  0  0  0  0  0  0  0  0  0
    7.7390   -3.0900   22.1280 C   0  0  0  0  0  0  0  0  0  0  0  0
    7.4420   -2.9460   23.5900 C   0  0  0  0  0  0  0  0  0  0  0  0
    6.0980   -3.5180   23.8960 C   0  0  0  0  0  0  0  0  0  0  0  0
    5.5940   -3.1850   25.2550 C   0  0  0  0  0  0  0  0  0  0  0  0
    4.5410   -2.5000   25.3810 O   0  0  0  0  0  0  0  0  0  0  0  0
    6.2090   -3.5940   26.4570 N   0  0  0  0  0  0  0  0  0  0  0  0
    5.7850   -4.8650   27.0800 C   0  0  0  0  0  0  0  0  0  0  0  0
    6.2700   -4.9340   28.4770 C   0  0  0  0  0  0  0  0  0  0  0  0
    5.2440   -5.1530   29.5140 C   0  0  1  0  0  0  0  0  0  0  0  0
    4.2300   -5.9990   29.1060 C   0  0  0  0  0  0  0  0  0  0  0  0
    4.9840   -6.4260   30.3950 C   0  0  0  0  0  0  0  0  0  0  0  0
    6.0830   -7.3320   30.2460 F   0  0  0  0  0  0  0  0  0  0  0  0
    4.4080   -6.2410   31.5930 F   0  0  0  0  0  0  0  0  0  0  0  0
    6.1260   -4.9930   23.6700 C   0  0  0  0  0  0  0  0  0  0  0  0
    6.5110   -5.2920   22.3790 C   0  0  0  0  0  0  0  0  0  0  0  0
  1  2  1  0
  2  3  2  0
  2  4  1  0
  4  5  1  0
  5  6  1  0
  6  7  1  0
  7  8  1  0
  8  9  2  0
  8 10  1  0
 10 11  1  0
 11 12  1  0
 13 12  1  6
 13 14  1  0
 13 15  1  0
 14 15  1  0
 15 16  1  0
 15 17  1  0
  7 18  1  0
  4 19  1  0
 18 19  1  0
M  END
