piperidine-amides-32207-covalent
     RDKit          3D

 27 29  0  0  0  0  0  0  0  0999 V2000
    7.0630   -3.3660   19.3960 C   0  0  0  0  0  0  0  0  0  0  0  0
    6.3400   -4.2130   20.3820 C   0  0  0  0  0  0  0  0  0  0  0  0
    5.3570   -4.8660   19.9880 O   0  0  0  0  0  0  0  0  0  0  0  0
    6.8150   -4.2900   21.7140 N   0  0  0  0  0  0  0  0  0  0  0  0
    7.6710   -3.2340   22.2490 C   0  0  0  0  0  0  0  0  0  0  0  0
    7.5550   -3.1850   23.7820 C   0  0  0  0  0  0  0  0  0  0  0  0
    6.2580   -3.8150   24.1330 C   0  0  0  0  0  0  0  0  0  0  0  0
    5.6590   -3.3990   25.4420 C   0  0  0  0  0  0  0  0  0  0  0  0
    4.6730   -2.6660   25.3230 O   0  0  0  0  0  0  0  0  0  0  0  0
    6.1310   -3.7870   26.7160 N   0  0  0  0  0  0  0  0  0  0  0  0
    5.9640   -3.0220   27.8910 C   0  0  0  0  0  0  0  0  0  0  0  0
    5.7640   -3.6310   29.1060 C   0  0  0  0  0  0  0  0  0  0  0  0
    4.6000   -4.4980   28.9600 N   0  0  0  0  0  0  0  0  0  0  0  0
    3.6620   -4.7510   29.9610 C   0  0  2  0  0  0  0  0  0  0  0  0
    3.4550   -3.6200   30.7230 C   0  0  0  0  0  0  0  0  0  0  0  0
    2.4120   -2.8170   30.8610 O   0  0  0  0  0  0  0  0  0  0  0  0
    4.0980   -5.8050   30.9090 C   0  0  0  0  0  0  0  0  0  0  0  0
    5.3570   -6.6080   30.5950 C   0  0  0  0  0  0  0  0  0  0  0  0
    5.6920   -7.6400   31.6240 C   0  0  0  0  0  0  0  0  0  0  0  0
    4.9740   -7.8820   32.7550 C   0  0  0  0  0  0  0  0  0  0  0  0
    3.7300   -7.2140   33.2340 C   0  0  0  0  0  0  0  0  0  0  0  0
    2.8790   -7.6040   34.7110 Cl  0  0  0  0  0  0  0  0  0  0  0  0
    3.3620   -6.1380   32.1830 C   0  0  0  0  0  0  0  0  0  0  0  0
    4.7860   -5.3130   27.9220 C   0  0  0  0  0  0  0  0  0  0  0  0
    6.0560   -5.1880   27.1240 C   0  0  0  0  0  0  0  0  0  0  0  0
    6.2620   -5.2820   23.9050 C   0  0  0  0  0  0  0  0  0  0  0  0
    6.6840   -5.5390   22.4550 C   0  0  0  0  0  0  0  0  0  0  0  0
  1  2  1  0
  2  3  2  0
  2  4  1  0
  4  5  1  0
  5  6  1  0
  6  7  1  0
  7  8  1  0
  8  9  2  0
  8 10  1  0
 10 11  1  0
 11 12  1  0
 12 13  1  0
 13 14  1  0
 14 15  1  1
 15 16  1  0
 14 17  1  0
 17 18  2  0
 18 19  1  0
 19 20  2  0
 20 21  1  0
 21 22  1  0
 17 23  1  0
 21 23  2  0
 13 24  1  0
 10 25  1  0
 24 25  1  0
  7 26  1  0
  4 27  1  0
 26 27  1  0
M  END
