piperidine-amides-24859-covalent
     RDKit          3D

 24 25  0  0  0  0  0  0  0  0999 V2000
    7.0320   -3.3480   19.4230 C   0  0  0  0  0  0  0  0  0  0  0  0
    6.3900   -4.2610   20.3830 C   0  0  0  0  0  0  0  0  0  0  0  0
    5.4090   -4.9420   20.0060 O   0  0  0  0  0  0  0  0  0  0  0  0
    6.8830   -4.4160   21.6990 N   0  0  0  0  0  0  0  0  0  0  0  0
    6.5840   -5.6530   22.4020 C   0  0  0  0  0  0  0  0  0  0  0  0
    6.2230   -5.3130   23.8680 C   0  0  0  0  0  0  0  0  0  0  0  0
    5.9850   -3.8230   23.9110 C   0  0  0  0  0  0  0  0  0  0  0  0
    5.3420   -3.3150   25.1600 C   0  0  0  0  0  0  0  0  0  0  0  0
    4.5370   -2.3820   25.0030 O   0  0  0  0  0  0  0  0  0  0  0  0
    5.5620   -3.8170   26.4710 N   0  0  0  0  0  0  0  0  0  0  0  0
    4.4350   -3.9130   27.3910 C   0  0  0  0  0  0  0  0  0  0  0  0
    4.6700   -4.8780   28.5630 C   0  0  0  0  0  0  0  0  0  0  0  0
    5.7800   -4.7060   29.2970 C   0  0  0  0  0  0  0  0  0  0  0  0
    6.7380   -4.3330   28.4860 C   0  0  0  0  0  0  0  0  0  0  0  0
    6.3900   -3.3680   27.5520 C   0  0  2  0  0  0  0  0  0  0  0  0
    5.7180   -2.2340   27.9790 C   0  0  0  0  0  0  0  0  0  0  0  0
    6.5920   -1.0550   28.4060 C   0  0  0  0  0  0  0  0  0  0  0  0
    5.1650   -0.8640   28.8700 C   0  0  0  0  0  0  0  0  0  0  0  0
    5.0580   -1.1600   30.0930 O   0  0  0  0  0  0  0  0  0  0  0  0
    4.1770   -0.4330   28.1830 O   0  0  0  0  0  0  0  0  0  0  0  0
    3.7870    0.9240   28.2700 C   0  0  0  0  0  0  0  0  0  0  0  0
    4.7140    1.6590   29.1310 C   0  0  0  0  0  0  0  0  0  0  0  0
    7.2780   -3.1300   23.6150 C   0  0  0  0  0  0  0  0  0  0  0  0
    7.6240   -3.3510   22.3140 C   0  0  0  0  0  0  0  0  0  0  0  0
  1  2  1  0
  2  3  2  0
  2  4  1  0
  4  5  1  0
  5  6  1  0
  6  7  1  0
  7  8  1  0
  8  9  2  0
  8 10  1  0
 10 11  1  0
 11 12  1  0
 12 13  1  0
 13 14  1  0
 10 15  1  0
 14 15  1  0
 15 16  1  1
 16 17  1  0
 17 18  1  0
 18 19  2  0
 18 20  1  0
 20 21  1  0
 21 22  1  0
  7 23  1  0
  4 24  1  0
 23 24  1  0
M  END
