piperidine-amides-834-covalent
     RDKit          3D

 25 27  0  0  0  0  0  0  0  0999 V2000
    7.1210   -3.3020   19.3970 C   0  0  0  0  0  0  0  0  0  0  0  0
    6.3900   -4.0950   20.3630 C   0  0  0  0  0  0  0  0  0  0  0  0
    5.3890   -4.7720   19.9600 O   0  0  0  0  0  0  0  0  0  0  0  0
    6.7730   -4.1640   21.7200 N   0  0  0  0  0  0  0  0  0  0  0  0
    6.6850   -5.5090   22.3500 C   0  0  0  0  0  0  0  0  0  0  0  0
    6.0910   -5.1930   23.7850 C   0  0  0  0  0  0  0  0  0  0  0  0
    6.2670   -3.7120   23.9930 C   0  0  0  0  0  0  0  0  0  0  0  0
    5.5570   -3.1290   25.2940 C   0  0  0  0  0  0  0  0  0  0  0  0
    4.7910   -2.2350   24.9690 O   0  0  0  0  0  0  0  0  0  0  0  0
    5.9370   -3.7280   26.3590 N   0  0  0  0  0  0  0  0  0  0  0  0
    6.2240   -4.3120   27.5590 C   0  0  0  0  0  0  0  0  0  0  0  0
    6.1160   -5.4620   28.3050 C   0  0  0  0  0  0  0  0  0  0  0  0
    7.2250   -6.2380   28.6340 O   0  0  0  0  0  0  0  0  0  0  0  0
    4.7360   -5.7530   28.7160 N   0  0  0  0  0  0  0  0  0  0  0  0
    3.7860   -4.8040   28.9580 C   0  0  0  0  0  0  0  0  0  0  0  0
    3.1400   -5.2690   30.2200 C   0  0  0  0  0  0  0  0  0  0  0  0
    2.4320   -6.3700   29.4310 C   0  0  0  0  0  0  0  0  0  0  0  0
    1.1550   -6.4940   30.0080 C   0  0  0  0  0  0  0  0  0  0  0  0
    0.0260   -7.3590   29.7030 C   0  0  0  0  0  0  0  0  0  0  0  0
    0.6650   -8.1470   28.5000 C   0  0  0  0  0  0  0  0  0  0  0  0
    2.0930   -7.9490   27.9190 C   0  0  0  0  0  0  0  0  0  0  0  0
    2.9430   -7.0700   28.3950 C   0  0  0  0  0  0  0  0  0  0  0  0
    4.2060   -6.8350   27.9480 C   0  0  0  0  0  0  0  0  0  0  0  0
    7.6430   -3.2020   23.6310 C   0  0  0  0  0  0  0  0  0  0  0  0
    7.6880   -3.1710   22.2610 C   0  0  0  0  0  0  0  0  0  0  0  0
  1  2  1  0
  2  3  2  0
  2  4  1  0
  4  5  1  0
  5  6  1  0
  6  7  1  0
  7  8  1  0
  8  9  2  0
  8 10  1  0
 10 11  1  0
 11 12  1  0
 12 13  2  0
 12 14  1  0
 14 15  1  0
 15 16  1  0
 16 17  1  0
 17 18  2  0
 18 19  1  0
 19 20  2  0
 20 21  1  0
 17 22  1  0
 21 22  2  0
 14 23  1  0
 22 23  1  0
  7 24  1  0
  4 25  1  0
 24 25  1  0
M  END
