piperidine-amides-31632-covalent
     RDKit          3D

 28 31  0  0  0  0  0  0  0  0999 V2000
    7.2710   -4.1760   19.7560 C   0  0  0  0  0  0  0  0  0  0  0  0
    6.1460   -4.1210   20.5010 C   0  0  0  0  0  0  0  0  0  0  0  0
    5.0830   -4.2540   19.8080 O   0  0  0  0  0  0  0  0  0  0  0  0
    6.3080   -4.0560   21.8810 N   0  0  0  0  0  0  0  0  0  0  0  0
    6.3300   -5.4450   22.4490 C   0  0  0  0  0  0  0  0  0  0  0  0
    6.1080   -5.2240   23.9900 C   0  0  0  0  0  0  0  0  0  0  0  0
    6.1470   -3.7370   24.1170 C   0  0  0  0  0  0  0  0  0  0  0  0
    5.3640   -3.1230   25.3470 C   0  0  0  0  0  0  0  0  0  0  0  0
    4.3980   -2.5260   24.9130 O   0  0  0  0  0  0  0  0  0  0  0  0
    5.8820   -3.3750   26.4770 N   0  0  0  0  0  0  0  0  0  0  0  0
    6.3570   -3.0900   27.7140 C   0  0  0  0  0  0  0  0  0  0  0  0
    6.6380   -3.7670   28.8520 C   0  0  0  0  0  0  0  0  0  0  0  0
    5.6850   -4.7430   28.9570 C   0  0  0  0  0  0  0  0  0  0  0  0
    5.1740   -5.2900   30.0300 N   0  0  0  0  0  0  0  0  0  0  0  0
    4.5190   -5.8660   29.0990 N   0  0  0  0  0  0  0  0  0  0  0  0
    3.5690   -6.7340   29.2000 C   0  0  0  0  0  0  0  0  0  0  0  0
    2.6440   -7.5480   28.6150 N   0  0  0  0  0  0  0  0  0  0  0  0
    1.8810   -6.9450   27.5130 C   0  0  0  0  0  0  0  0  0  0  0  0
    0.9950   -7.8790   26.9570 C   0  0  0  0  0  0  0  0  0  0  0  0
   -0.1460   -8.1290   27.7470 C   0  0  0  0  0  0  0  0  0  0  0  0
   -0.0630   -7.2440   28.7780 O   0  0  0  0  0  0  0  0  0  0  0  0
    0.6580   -7.6640   29.8660 C   0  0  0  0  0  0  0  0  0  0  0  0
    1.9500   -8.4610   29.5000 C   0  0  0  0  0  0  0  0  0  0  0  0
    4.0760   -6.2430   27.8050 C   0  0  0  0  0  0  0  0  0  0  0  0
    5.1110   -5.2640   27.7320 C   0  0  0  0  0  0  0  0  0  0  0  0
    5.5340   -4.8100   26.5330 C   0  0  0  0  0  0  0  0  0  0  0  0
    7.3840   -3.0750   23.6720 C   0  0  0  0  0  0  0  0  0  0  0  0
    7.4160   -3.2000   22.2920 C   0  0  0  0  0  0  0  0  0  0  0  0
  1  2  1  0
  2  3  2  0
  2  4  1  0
  4  5  1  0
  5  6  1  0
  6  7  1  0
  7  8  1  0
  8  9  2  0
  8 10  1  0
 10 11  1  0
 11 12  1  0
 12 13  1  0
 13 14  2  0
 14 15  1  0
 15 16  2  0
 16 17  1  0
 17 18  1  0
 18 19  1  0
 19 20  1  0
 20 21  1  0
 21 22  1  0
 17 23  1  0
 22 23  1  0
 16 24  1  0
 13 25  1  0
 24 25  2  0
 10 26  1  0
 25 26  1  0
  7 27  1  0
  4 28  1  0
 27 28  1  0
M  END
