piperidine-amides-30233-covalent
     RDKit          3D

 27 29  0  0  0  0  0  0  0  0999 V2000
    7.0510   -3.3550   19.3350 C   0  0  0  0  0  0  0  0  0  0  0  0
    6.3810   -4.2030   20.3050 C   0  0  0  0  0  0  0  0  0  0  0  0
    5.3630   -4.8130   19.9790 O   0  0  0  0  0  0  0  0  0  0  0  0
    6.9370   -4.3840   21.6190 N   0  0  0  0  0  0  0  0  0  0  0  0
    7.6480   -3.3030   22.2590 C   0  0  0  0  0  0  0  0  0  0  0  0
    6.8840   -2.8200   23.4560 C   0  0  0  0  0  0  0  0  0  0  0  0
    6.5460   -4.0130   24.3370 C   0  0  0  0  0  0  0  0  0  0  0  0
    5.7300   -3.5510   25.5140 C   0  0  0  0  0  0  0  0  0  0  0  0
    4.6830   -2.8980   25.3380 O   0  0  0  0  0  0  0  0  0  0  0  0
    6.1030   -3.8370   26.8660 N   0  0  0  0  0  0  0  0  0  0  0  0
    5.8440   -2.8110   27.8380 C   0  0  0  0  0  0  0  0  0  0  0  0
    5.3330   -3.5660   29.0440 C   0  0  0  0  0  0  0  0  0  0  0  0
    4.4720   -4.5860   28.9220 N   0  0  0  0  0  0  0  0  0  0  0  0
    4.1760   -5.1080   30.1310 C   0  0  0  0  0  0  0  0  0  0  0  0
    4.9570   -6.0380   30.5950 N   0  0  0  0  0  0  0  0  0  0  0  0
    4.7150   -6.6340   31.8840 C   0  0  0  0  0  0  0  0  0  0  0  0
    5.5030   -7.6140   32.4280 C   0  0  0  0  0  0  0  0  0  0  0  0
    3.5840   -6.0860   32.5020 C   0  0  0  0  0  0  0  0  0  0  0  0
    2.7120   -5.0860   32.0390 C   0  0  0  0  0  0  0  0  0  0  0  0
    1.6800   -4.6610   32.7180 O   0  0  0  0  0  0  0  0  0  0  0  0
    1.0840   -4.5100   34.0070 C   0  0  0  0  0  0  0  0  0  0  0  0
    1.5750   -5.4710   34.8920 C   0  0  0  0  0  0  0  0  0  0  0  0
    3.0970   -4.5970   30.7340 N   0  0  0  0  0  0  0  0  0  0  0  0
    5.0820   -5.4860   28.1170 C   0  0  0  0  0  0  0  0  0  0  0  0
    6.1340   -5.1730   27.3350 C   0  0  0  0  0  0  0  0  0  0  0  0
    5.7480   -5.0380   23.5720 C   0  0  0  0  0  0  0  0  0  0  0  0
    6.4940   -5.4980   22.3680 C   0  0  0  0  0  0  0  0  0  0  0  0
  1  2  1  0
  2  3  2  0
  2  4  1  0
  4  5  1  0
  5  6  1  0
  6  7  1  0
  7  8  1  0
  8  9  2  0
  8 10  1  0
 10 11  1  0
 11 12  1  0
 12 13  1  0
 13 14  1  0
 14 15  2  0
 15 16  1  0
 16 17  1  0
 16 18  2  0
 18 19  1  0
 19 20  1  0
 20 21  1  0
 21 22  1  0
 14 23  1  0
 19 23  2  0
 13 24  1  0
 10 25  1  0
 24 25  1  0
  7 26  1  0
  4 27  1  0
 26 27  1  0
M  END
