piperidine-amides-35067-covalent
     RDKit          3D

 33 37  0  0  0  0  0  0  0  0999 V2000
    7.0840   -3.3490   19.3710 C   0  0  0  0  0  0  0  0  0  0  0  0
    6.3870   -4.1950   20.3730 C   0  0  0  0  0  0  0  0  0  0  0  0
    5.3820   -4.7880   19.9740 O   0  0  0  0  0  0  0  0  0  0  0  0
    6.8890   -4.3380   21.6800 N   0  0  0  0  0  0  0  0  0  0  0  0
    6.6030   -5.4980   22.4730 C   0  0  0  0  0  0  0  0  0  0  0  0
    5.9030   -5.0680   23.7330 C   0  0  0  0  0  0  0  0  0  0  0  0
    6.5030   -3.7690   24.3070 C   0  0  0  0  0  0  0  0  0  0  0  0
    5.4820   -3.2300   25.2400 C   0  0  0  0  0  0  0  0  0  0  0  0
    4.2930   -3.2630   24.8990 O   0  0  0  0  0  0  0  0  0  0  0  0
    5.8100   -2.6770   26.4990 N   0  0  0  0  0  0  0  0  0  0  0  0
    4.7840   -2.6630   27.5320 C   0  0  0  0  0  0  0  0  0  0  0  0
    3.7900   -1.7860   27.7470 N   0  0  0  0  0  0  0  0  0  0  0  0
    2.9020   -1.9250   28.7770 C   0  0  0  0  0  0  0  0  0  0  0  0
    2.9850   -2.9930   29.6620 N   0  0  0  0  0  0  0  0  0  0  0  0
    3.9870   -3.8930   29.4590 C   0  0  0  0  0  0  0  0  0  0  0  0
    4.8720   -3.7880   28.4590 C   0  0  0  0  0  0  0  0  0  0  0  0
    5.8100   -4.8160   28.4290 O   0  0  0  0  0  0  0  0  0  0  0  0
    5.4500   -5.5990   29.5120 C   0  0  0  0  0  0  0  0  0  0  0  0
    6.2550   -6.8190   29.7950 C   0  0  0  0  0  0  0  0  0  0  0  0
    5.7550   -7.5540   31.0120 C   0  0  0  0  0  0  0  0  0  0  0  0
    4.5540   -7.0600   31.8000 C   0  0  0  0  0  0  0  0  0  0  0  0
    3.8730   -5.8140   31.3430 C   0  0  0  0  0  0  0  0  0  0  0  0
    4.2830   -5.0030   30.1730 C   0  0  0  0  0  0  0  0  0  0  0  0
    6.6320   -1.4650   26.7160 C   0  0  2  0  0  0  0  0  0  0  0  0
    7.3410   -1.5950   28.0470 C   0  0  0  0  0  0  0  0  0  0  0  0
    6.9510   -0.6870   29.2080 C   0  0  0  0  0  0  0  0  0  0  0  0
    6.0390    0.2940   28.8910 C   0  0  0  0  0  0  0  0  0  0  0  0
    5.9960    0.8160   27.4910 C   0  0  0  0  0  0  0  0  0  0  0  0
    6.0670   -0.2310   26.3900 C   0  0  2  0  0  0  0  0  0  0  0  0
    4.7520   -0.3080   25.6130 C   0  0  0  0  0  0  0  0  0  0  0  0
    4.7420    0.9500   24.9570 O   0  0  0  0  0  0  0  0  0  0  0  0
    6.9050   -2.6760   23.3340 C   0  0  0  0  0  0  0  0  0  0  0  0
    7.7490   -3.3070   22.2250 C   0  0  0  0  0  0  0  0  0  0  0  0
  1  2  1  0
  2  3  2  0
  2  4  1  0
  4  5  1  0
  5  6  1  0
  6  7  1  0
  7  8  1  0
  8  9  2  0
  8 10  1  0
 10 11  1  0
 11 12  2  0
 12 13  1  0
 13 14  2  0
 14 15  1  0
 11 16  1  0
 15 16  2  0
 16 17  1  0
 17 18  1  0
 18 19  1  0
 19 20  2  0
 20 21  1  0
 21 22  2  0
 15 23  1  0
 18 23  2  0
 22 23  1  0
 24 10  1  1
 24 25  1  0
 25 26  1  0
 26 27  1  0
 27 28  1  0
 24 29  1  0
 28 29  1  0
 29 30  1  1
 30 31  1  0
  7 32  1  0
  4 33  1  0
 32 33  1  0
M  END
