piperidine-amides-10497-covalent
     RDKit          3D

 24 25  0  0  0  0  0  0  0  0999 V2000
    7.0860   -3.2860   19.2530 C   0  0  0  0  0  0  0  0  0  0  0  0
    6.3700   -4.0690   20.2730 C   0  0  0  0  0  0  0  0  0  0  0  0
    5.2910   -4.5940   19.9010 O   0  0  0  0  0  0  0  0  0  0  0  0
    6.8930   -4.2550   21.5630 N   0  0  0  0  0  0  0  0  0  0  0  0
    6.6350   -5.4520   22.3300 C   0  0  0  0  0  0  0  0  0  0  0  0
    6.0730   -5.0560   23.6750 C   0  0  0  0  0  0  0  0  0  0  0  0
    6.0450   -3.5590   23.8620 C   0  0  0  0  0  0  0  0  0  0  0  0
    5.6710   -3.2330   25.2550 C   0  0  0  0  0  0  0  0  0  0  0  0
    4.4580   -3.2210   25.5460 O   0  0  0  0  0  0  0  0  0  0  0  0
    6.6090   -2.9280   26.2540 N   0  0  0  0  0  0  0  0  0  0  0  0
    6.2660   -3.0180   27.6500 C   0  0  0  0  0  0  0  0  0  0  0  0
    5.7060   -4.3630   28.0820 C   0  0  0  0  0  0  0  0  0  0  0  0
    4.4450   -4.8620   27.7930 C   0  0  0  0  0  0  0  0  0  0  0  0
    3.9620   -6.0780   28.2070 C   0  0  0  0  0  0  0  0  0  0  0  0
    4.7610   -6.8840   28.9660 C   0  0  0  0  0  0  0  0  0  0  0  0
    4.3050   -8.0700   29.3860 N   0  0  0  0  0  0  0  0  0  0  0  0
    2.8100   -7.7740   30.1000 S   0  0  0  0  0  0  0  0  0  0  0  0
    1.5720   -8.4540   29.1470 C   0  0  0  0  0  0  0  0  0  0  0  0
    2.7850   -8.4190   31.4400 O   0  0  0  0  0  0  0  0  0  0  0  0
    2.6500   -6.2960   30.1620 O   0  0  0  0  0  0  0  0  0  0  0  0
    6.0080   -6.4750   29.2880 C   0  0  0  0  0  0  0  0  0  0  0  0
    6.7130   -5.1930   28.9320 C   0  0  0  0  0  0  0  0  0  0  0  0
    7.3600   -2.9430   23.5480 C   0  0  0  0  0  0  0  0  0  0  0  0
    7.7060   -3.1580   22.0990 C   0  0  0  0  0  0  0  0  0  0  0  0
  1  2  1  0
  2  3  2  0
  2  4  1  0
  4  5  1  0
  5  6  1  0
  6  7  1  0
  7  8  1  0
  8  9  2  0
  8 10  1  0
 10 11  1  0
 11 12  1  0
 12 13  2  0
 13 14  1  0
 14 15  2  0
 15 16  1  0
 17 16  1  0
 17 18  1  0
 17 19  2  0
 17 20  2  0
 15 21  1  0
 12 22  1  0
 21 22  2  0
  7 23  1  0
  4 24  1  0
 23 24  1  0
M  END
