piperidine-amides-19126-covalent
     RDKit          3D

 22 24  0  0  0  0  0  0  0  0999 V2000
    7.0610   -3.4420   19.4030 C   0  0  0  0  0  0  0  0  0  0  0  0
    6.3960   -4.2250   20.4160 C   0  0  0  0  0  0  0  0  0  0  0  0
    5.4150   -4.9280   20.0160 O   0  0  0  0  0  0  0  0  0  0  0  0
    6.8140   -4.2880   21.7770 N   0  0  0  0  0  0  0  0  0  0  0  0
    6.5910   -5.5180   22.5450 C   0  0  0  0  0  0  0  0  0  0  0  0
    5.5320   -4.9690   23.5820 C   0  0  0  0  0  0  0  0  0  0  0  0
    6.1070   -3.7580   24.3190 C   0  0  0  0  0  0  0  0  0  0  0  0
    4.9400   -3.0950   25.2440 C   0  0  0  0  0  0  0  0  0  0  0  0
    3.9640   -2.9060   24.5480 O   0  0  0  0  0  0  0  0  0  0  0  0
    5.2730   -2.9200   26.4760 N   0  0  0  0  0  0  0  0  0  0  0  0
    5.3720   -2.4040   27.7320 C   0  0  0  0  0  0  0  0  0  0  0  0
    5.8350   -2.9540   28.8530 C   0  0  0  0  0  0  0  0  0  0  0  0
    6.1780   -4.1670   28.3390 C   0  0  1  0  0  0  0  0  0  0  0  0
    5.2170   -5.2180   28.6770 C   0  0  0  0  0  0  0  0  0  0  0  0
    6.0950   -6.4610   28.8780 C   0  0  0  0  0  0  0  0  0  0  0  0
    5.2760   -7.6000   29.2240 C   0  0  0  0  0  0  0  0  0  0  0  0
    3.8450   -7.7940   29.4130 C   0  0  0  0  0  0  0  0  0  0  0  0
    3.5930   -6.3510   29.1040 C   0  0  0  0  0  0  0  0  0  0  0  0
    3.8730   -5.3130   28.8360 N   0  0  0  0  0  0  0  0  0  0  0  0
    6.2400   -3.8660   26.8360 C   0  0  0  0  0  0  0  0  0  0  0  0
    6.7190   -2.6990   23.3570 C   0  0  0  0  0  0  0  0  0  0  0  0
    7.5880   -3.2730   22.4550 C   0  0  0  0  0  0  0  0  0  0  0  0
  1  2  1  0
  2  3  2  0
  2  4  1  0
  4  5  1  0
  5  6  1  0
  6  7  1  0
  7  8  1  0
  8  9  2  0
  8 10  1  0
 10 11  1  0
 11 12  1  0
 12 13  1  0
 13 14  1  6
 14 15  2  0
 15 16  1  0
 16 17  2  0
 17 18  1  0
 14 19  1  0
 18 19  2  0
 10 20  1  0
 13 20  1  0
  7 21  1  0
  4 22  1  0
 21 22  1  0
M  END
