piperidine-amides-3368-covalent
     RDKit          3D

 21 22  0  0  0  0  0  0  0  0999 V2000
    7.1160   -3.2650   19.2290 C   0  0  0  0  0  0  0  0  0  0  0  0
    6.3440   -4.0350   20.2020 C   0  0  0  0  0  0  0  0  0  0  0  0
    5.2760   -4.5460   19.8800 O   0  0  0  0  0  0  0  0  0  0  0  0
    6.8630   -4.2410   21.5190 N   0  0  0  0  0  0  0  0  0  0  0  0
    6.4410   -5.3890   22.2720 C   0  0  0  0  0  0  0  0  0  0  0  0
    5.6460   -4.9340   23.4660 C   0  0  0  0  0  0  0  0  0  0  0  0
    6.5050   -3.9670   24.2730 C   0  0  0  0  0  0  0  0  0  0  0  0
    5.7250   -3.5100   25.4620 C   0  0  0  0  0  0  0  0  0  0  0  0
    4.4790   -3.4960   25.4620 O   0  0  0  0  0  0  0  0  0  0  0  0
    6.4180   -3.0650   26.6230 N   0  0  0  0  0  0  0  0  0  0  0  0
    6.2660   -3.7710   27.8870 C   0  0  2  0  0  0  0  0  0  0  0  0
    5.8520   -5.2030   27.6310 C   0  0  0  0  0  0  0  0  0  0  0  0
    6.2200   -6.1630   28.5560 C   0  0  0  0  0  0  0  0  0  0  0  0
    5.3330   -3.1120   28.8260 C   0  0  0  0  0  0  0  0  0  0  0  0
    3.9950   -3.0010   28.5170 C   0  0  0  0  0  0  0  0  0  0  0  0
    3.2420   -1.8570   29.0070 C   0  0  0  0  0  0  0  0  0  0  0  0
    3.9560   -0.8350   29.2550 O   0  0  0  0  0  0  0  0  0  0  0  0
    5.2170   -0.9480   28.6540 C   0  0  0  0  0  0  0  0  0  0  0  0
    5.9070   -1.9540   29.3060 C   0  0  0  0  0  0  0  0  0  0  0  0
    7.1140   -2.8430   23.5130 C   0  0  0  0  0  0  0  0  0  0  0  0
    7.5420   -3.1710   22.1570 C   0  0  0  0  0  0  0  0  0  0  0  0
  1  2  1  0
  2  3  2  0
  2  4  1  0
  4  5  1  0
  5  6  1  0
  6  7  1  0
  7  8  1  0
  8  9  2  0
  8 10  1  0
 10 11  1  0
 11 12  1  6
 12 13  1  0
 11 14  1  0
 14 15  1  0
 15 16  1  0
 16 17  1  0
 17 18  1  0
 14 19  1  0
 18 19  1  0
  7 20  1  0
  4 21  1  0
 20 21  1  0
M  END
