piperidine-amides-12366-covalent
     RDKit          3D

 24 25  0  0  0  0  0  0  0  0999 V2000
    7.0610   -3.3710   19.3570 C   0  0  0  0  0  0  0  0  0  0  0  0
    6.3380   -4.1690   20.3360 C   0  0  0  0  0  0  0  0  0  0  0  0
    5.3530   -4.8160   19.9810 O   0  0  0  0  0  0  0  0  0  0  0  0
    6.8030   -4.2440   21.6970 N   0  0  0  0  0  0  0  0  0  0  0  0
    7.6830   -3.2100   22.1970 C   0  0  0  0  0  0  0  0  0  0  0  0
    7.4040   -2.9440   23.6430 C   0  0  0  0  0  0  0  0  0  0  0  0
    6.0810   -3.6070   23.9400 C   0  0  0  0  0  0  0  0  0  0  0  0
    5.6180   -3.1940   25.2940 C   0  0  0  0  0  0  0  0  0  0  0  0
    4.4130   -3.1680   25.6070 O   0  0  0  0  0  0  0  0  0  0  0  0
    6.5820   -2.8170   26.2510 N   0  0  0  0  0  0  0  0  0  0  0  0
    6.4410   -1.5610   26.9510 C   0  0  0  0  0  0  0  0  0  0  0  0
    6.9900   -1.6340   28.3540 C   0  0  0  0  0  0  0  0  0  0  0  0
    6.9440   -0.5360   29.1870 C   0  0  0  0  0  0  0  0  0  0  0  0
    6.3770    0.6610   28.7170 C   0  0  0  0  0  0  0  0  0  0  0  0
    6.2930    1.7970   29.4930 C   0  0  0  0  0  0  0  0  0  0  0  0
    6.7600    3.0160   28.8500 C   0  0  0  0  0  0  0  0  0  0  0  0
    6.2650    4.5830   29.2860 S   0  0  0  0  0  0  0  0  0  0  0  0
    4.5890    4.3540   29.5060 C   0  0  0  0  0  0  0  0  0  0  0  0
    6.5100    5.6240   28.2470 O   0  0  0  0  0  0  0  0  0  0  0  0
    6.9190    4.9610   30.5680 O   0  0  0  0  0  0  0  0  0  0  0  0
    5.8870    0.6900   27.4240 C   0  0  0  0  0  0  0  0  0  0  0  0
    5.9120   -0.3880   26.5500 C   0  0  0  0  0  0  0  0  0  0  0  0
    6.0430   -5.0460   23.7370 C   0  0  0  0  0  0  0  0  0  0  0  0
    6.5920   -5.4190   22.5130 C   0  0  0  0  0  0  0  0  0  0  0  0
  1  2  1  0
  2  3  2  0
  2  4  1  0
  4  5  1  0
  5  6  1  0
  6  7  1  0
  7  8  1  0
  8  9  2  0
  8 10  1  0
 10 11  1  0
 11 12  2  0
 12 13  1  0
 13 14  2  0
 14 15  1  0
 15 16  1  0
 17 16  1  0
 17 18  1  0
 17 19  2  0
 17 20  2  0
 14 21  1  0
 11 22  1  0
 21 22  2  0
  7 23  1  0
  4 24  1  0
 23 24  1  0
M  END
