piperidine-amides-9822-covalent
     RDKit          3D

 27 29  0  0  0  0  0  0  0  0999 V2000
    7.0680   -3.2990   19.3170 C   0  0  0  0  0  0  0  0  0  0  0  0
    6.3750   -4.1000   20.3290 C   0  0  0  0  0  0  0  0  0  0  0  0
    5.3290   -4.6870   19.9380 O   0  0  0  0  0  0  0  0  0  0  0  0
    6.8770   -4.2320   21.6340 N   0  0  0  0  0  0  0  0  0  0  0  0
    7.6510   -3.1830   22.2850 C   0  0  0  0  0  0  0  0  0  0  0  0
    7.0330   -2.8860   23.6310 C   0  0  0  0  0  0  0  0  0  0  0  0
    5.7220   -3.6130   23.7540 C   0  0  0  0  0  0  0  0  0  0  0  0
    4.8830   -3.2820   24.9450 C   0  0  0  0  0  0  0  0  0  0  0  0
    3.6730   -3.5400   24.8520 O   0  0  0  0  0  0  0  0  0  0  0  0
    5.2910   -2.7090   26.1630 N   0  0  0  0  0  0  0  0  0  0  0  0
    6.2190   -3.3930   26.9840 C   0  0  1  0  0  0  0  0  0  0  0  0
    6.4510   -2.7220   28.3230 C   0  0  0  0  0  0  0  0  0  0  0  0
    5.4830   -2.0620   29.0450 C   0  0  0  0  0  0  0  0  0  0  0  0
    4.3020   -2.5850   29.5200 C   0  0  0  0  0  0  0  0  0  0  0  0
    3.6190   -1.6600   30.1730 N   0  0  0  0  0  0  0  0  0  0  0  0
    4.2620   -0.5130   30.1810 C   0  0  0  0  0  0  0  0  0  0  0  0
    3.9150    0.6980   30.7440 C   0  0  0  0  0  0  0  0  0  0  0  0
    4.7220    1.8160   30.6520 C   0  0  0  0  0  0  0  0  0  0  0  0
    6.0580    1.8300   29.9290 C   0  0  0  0  0  0  0  0  0  0  0  0
    6.3630    0.4520   29.3390 C   0  0  0  0  0  0  0  0  0  0  0  0
    5.4410   -0.7270   29.4780 C   0  0  0  0  0  0  0  0  0  0  0  0
    5.7660   -4.8080   27.2600 C   0  0  0  0  0  0  0  0  0  0  0  0
    5.3540   -5.5940   26.3740 O   0  0  0  0  0  0  0  0  0  0  0  0
    5.8200   -5.2580   28.5590 O   0  0  0  0  0  0  0  0  0  0  0  0
    6.2130   -6.5640   28.9410 C   0  0  0  0  0  0  0  0  0  0  0  0
    6.0190   -5.1010   23.7140 C   0  0  0  0  0  0  0  0  0  0  0  0
    6.6880   -5.4600   22.3930 C   0  0  0  0  0  0  0  0  0  0  0  0
  1  2  1  0
  2  3  2  0
  2  4  1  0
  4  5  1  0
  5  6  1  0
  6  7  1  0
  7  8  1  0
  8  9  2  0
  8 10  1  0
 10 11  1  0
 11 12  1  1
 12 13  1  0
 13 14  2  0
 14 15  1  0
 15 16  1  0
 16 17  1  0
 17 18  2  0
 18 19  1  0
 19 20  2  0
 13 21  1  0
 16 21  2  0
 20 21  1  0
 11 22  1  0
 22 23  2  0
 22 24  1  0
 24 25  1  0
  7 26  1  0
  4 27  1  0
 26 27  1  0
M  END
