piperidine-amides-33382-covalent
     RDKit          3D

 25 27  0  0  0  0  0  0  0  0999 V2000
    7.1020   -3.3850   19.3510 C   0  0  0  0  0  0  0  0  0  0  0  0
    6.4050   -4.1950   20.3550 C   0  0  0  0  0  0  0  0  0  0  0  0
    5.3610   -4.7800   19.9730 O   0  0  0  0  0  0  0  0  0  0  0  0
    6.9350   -4.3550   21.6650 N   0  0  0  0  0  0  0  0  0  0  0  0
    6.4900   -5.4340   22.4620 C   0  0  0  0  0  0  0  0  0  0  0  0
    6.1040   -5.0600   23.8320 C   0  0  0  0  0  0  0  0  0  0  0  0
    6.4790   -3.6980   24.2960 C   0  0  0  0  0  0  0  0  0  0  0  0
    5.4500   -3.1620   25.2660 C   0  0  0  0  0  0  0  0  0  0  0  0
    4.5980   -2.3680   24.8500 O   0  0  0  0  0  0  0  0  0  0  0  0
    5.3920   -3.5340   26.6330 N   0  0  0  0  0  0  0  0  0  0  0  0
    4.6460   -4.6010   27.1170 C   0  0  0  0  0  0  0  0  0  0  0  0
    5.3900   -5.7330   27.6240 C   0  0  0  0  0  0  0  0  0  0  0  0
    6.6020   -5.4780   27.8620 O   0  0  0  0  0  0  0  0  0  0  0  0
    6.7100   -4.2450   28.4190 C   0  0  2  0  0  0  0  0  0  0  0  0
    5.6340   -4.2440   29.2840 C   0  0  0  0  0  0  0  0  0  0  0  0
    5.7820   -5.7090   29.7610 C   0  0  0  0  0  0  0  0  0  0  0  0
    4.7230   -6.1500   30.7710 C   0  0  0  0  0  0  0  0  0  0  0  0
    3.6810   -5.0560   31.1520 C   0  0  0  0  0  0  0  0  0  0  0  0
    2.3450   -5.5640   32.4100 Br  0  0  0  0  0  0  0  0  0  0  0  0
    3.6390   -3.6510   30.6220 C   0  0  0  0  0  0  0  0  0  0  0  0
    4.7100   -3.3330   29.6490 C   0  0  0  0  0  0  0  0  0  0  0  0
    6.4990   -3.1100   27.4140 C   0  0  2  0  0  0  0  0  0  0  0  0
    6.4050   -1.8360   28.1720 C   0  0  0  0  0  0  0  0  0  0  0  0
    6.7590   -2.7220   23.2000 C   0  0  0  0  0  0  0  0  0  0  0  0
    7.6450   -3.2830   22.3040 C   0  0  0  0  0  0  0  0  0  0  0  0
  1  2  1  0
  2  3  2  0
  2  4  1  0
  4  5  1  0
  5  6  1  0
  6  7  1  0
  7  8  1  0
  8  9  2  0
  8 10  1  0
 10 11  1  0
 11 12  1  0
 12 13  1  0
 13 14  1  0
 14 15  1  1
 15 16  2  0
 16 17  1  0
 17 18  2  0
 18 19  1  0
 18 20  1  0
 15 21  1  0
 20 21  2  0
 10 22  1  0
 14 22  1  0
 22 23  1  1
  7 24  1  0
  4 25  1  0
 24 25  1  0
M  END
