piperidine-amides-10075-covalent
     RDKit          3D

 26 28  0  0  0  0  0  0  0  0999 V2000
    7.1130   -3.3340   19.2980 C   0  0  0  0  0  0  0  0  0  0  0  0
    6.3710   -4.1110   20.2900 C   0  0  0  0  0  0  0  0  0  0  0  0
    5.2890   -4.6290   19.9130 O   0  0  0  0  0  0  0  0  0  0  0  0
    6.9040   -4.2910   21.5610 N   0  0  0  0  0  0  0  0  0  0  0  0
    7.7220   -3.2680   22.1680 C   0  0  0  0  0  0  0  0  0  0  0  0
    6.9730   -2.7380   23.3450 C   0  0  0  0  0  0  0  0  0  0  0  0
    6.5340   -3.8570   24.2420 C   0  0  0  0  0  0  0  0  0  0  0  0
    5.8230   -3.2930   25.4080 C   0  0  0  0  0  0  0  0  0  0  0  0
    4.5760   -3.2080   25.3600 O   0  0  0  0  0  0  0  0  0  0  0  0
    6.4970   -2.8430   26.5630 N   0  0  0  0  0  0  0  0  0  0  0  0
    5.9770   -1.7920   27.3970 C   0  0  0  0  0  0  0  0  0  0  0  0
    5.7020   -0.4880   26.6690 C   0  0  0  0  0  0  0  0  0  0  0  0
    5.6260    0.6980   27.3440 C   0  0  0  0  0  0  0  0  0  0  0  0
    5.5460    0.6350   28.7010 N   0  0  0  0  0  0  0  0  0  0  0  0
    4.5010    1.1570   29.3770 C   0  0  0  0  0  0  0  0  0  0  0  0
    3.5220    1.8960   28.7240 C   0  0  0  0  0  0  0  0  0  0  0  0
    2.4410    2.4390   29.3970 C   0  0  0  0  0  0  0  0  0  0  0  0
    2.2850    2.2700   30.7540 C   0  0  0  0  0  0  0  0  0  0  0  0
    1.0920    2.8860   31.4430 C   0  0  0  0  0  0  0  0  0  0  0  0
    1.5730    4.3360   31.4830 C   0  0  0  0  0  0  0  0  0  0  0  0
    3.2370    1.5420   31.4400 C   0  0  0  0  0  0  0  0  0  0  0  0
    4.4360    0.9310   30.7350 C   0  0  0  0  0  0  0  0  0  0  0  0
    6.6480   -0.0740   29.2670 C   0  0  0  0  0  0  0  0  0  0  0  0
    6.8830   -1.3800   28.5200 C   0  0  0  0  0  0  0  0  0  0  0  0
    5.6610   -4.8480   23.5230 C   0  0  0  0  0  0  0  0  0  0  0  0
    6.4670   -5.4200   22.3510 C   0  0  0  0  0  0  0  0  0  0  0  0
  1  2  1  0
  2  3  2  0
  2  4  1  0
  4  5  1  0
  5  6  1  0
  6  7  1  0
  7  8  1  0
  8  9  2  0
  8 10  1  0
 10 11  1  0
 11 12  1  0
 12 13  1  0
 13 14  1  0
 14 15  1  0
 15 16  2  0
 16 17  1  0
 17 18  2  0
 18 19  1  0
 19 20  1  0
 18 21  1  0
 15 22  1  0
 21 22  2  0
 14 23  1  0
 11 24  1  0
 23 24  1  0
  7 25  1  0
  4 26  1  0
 25 26  1  0
M  END
