piperidine-amides-477-covalent
     RDKit          3D

 27 29  0  0  0  0  0  0  0  0999 V2000
    7.0540   -3.3800   19.3010 C   0  0  0  0  0  0  0  0  0  0  0  0
    6.3800   -4.1370   20.3300 C   0  0  0  0  0  0  0  0  0  0  0  0
    5.3640   -4.8110   19.9780 O   0  0  0  0  0  0  0  0  0  0  0  0
    6.8240   -4.2030   21.6670 N   0  0  0  0  0  0  0  0  0  0  0  0
    7.5960   -3.0350   22.1960 C   0  0  0  0  0  0  0  0  0  0  0  0
    7.6180   -3.2600   23.7640 C   0  0  0  0  0  0  0  0  0  0  0  0
    6.2480   -3.7610   24.1310 C   0  0  0  0  0  0  0  0  0  0  0  0
    5.9050   -3.7150   25.6850 C   0  0  0  0  0  0  0  0  0  0  0  0
    5.4800   -4.7930   26.0430 O   0  0  0  0  0  0  0  0  0  0  0  0
    6.1300   -2.5680   26.1710 N   0  0  0  0  0  0  0  0  0  0  0  0
    6.1790   -1.3160   26.6930 C   0  0  0  0  0  0  0  0  0  0  0  0
    5.8940   -0.0360   26.2230 C   0  0  0  0  0  0  0  0  0  0  0  0
    6.0280    1.1320   27.0230 C   0  0  0  0  0  0  0  0  0  0  0  0
    6.4790    1.0120   28.3950 C   0  0  0  0  0  0  0  0  0  0  0  0
    6.7380    2.0370   29.5110 C   0  0  0  0  0  0  0  0  0  0  0  0
    6.8060   -0.3240   28.9970 C   0  0  0  0  0  0  0  0  0  0  0  0
    7.2290   -0.4750   30.3100 C   0  0  0  0  0  0  0  0  0  0  0  0
    8.5280   -0.8250   30.3940 O   0  0  0  0  0  0  0  0  0  0  0  0
    6.4510   -0.2800   31.3870 N   0  0  0  0  0  0  0  0  0  0  0  0
    6.9110    0.4580   32.5390 C   0  0  0  0  0  0  0  0  0  0  0  0
    5.9030    1.6480   32.7050 C   0  0  0  0  0  0  0  0  0  0  0  0
    4.6090    1.4730   32.2730 C   0  0  0  0  0  0  0  0  0  0  0  0
    4.3190    0.5180   31.3330 C   0  0  0  0  0  0  0  0  0  0  0  0
    5.0710   -0.6080   31.4260 C   0  0  0  0  0  0  0  0  0  0  0  0
    6.6520   -1.3860   28.1570 C   0  0  0  0  0  0  0  0  0  0  0  0
    5.8450   -5.0820   23.5770 C   0  0  0  0  0  0  0  0  0  0  0  0
    6.6770   -5.4330   22.3940 C   0  0  0  0  0  0  0  0  0  0  0  0
  1  2  1  0
  2  3  2  0
  2  4  1  0
  4  5  1  0
  5  6  1  0
  6  7  1  0
  7  8  1  0
  8  9  2  0
  8 10  1  0
 10 11  1  0
 11 12  2  0
 12 13  1  0
 13 14  2  0
 14 15  1  0
 14 16  1  0
 16 17  1  0
 17 18  2  0
 17 19  1  0
 19 20  1  0
 20 21  1  0
 21 22  1  0
 22 23  1  0
 19 24  1  0
 23 24  1  0
 11 25  1  0
 16 25  2  0
  7 26  1  0
  4 27  1  0
 26 27  1  0
M  END
