piperidine-amides-13335-covalent
     RDKit          3D

 22 23  0  0  0  0  0  0  0  0999 V2000
    7.0500   -3.3150   19.3510 C   0  0  0  0  0  0  0  0  0  0  0  0
    6.3740   -4.1540   20.3710 C   0  0  0  0  0  0  0  0  0  0  0  0
    5.3800   -4.7960   19.9710 O   0  0  0  0  0  0  0  0  0  0  0  0
    6.8530   -4.2490   21.6990 N   0  0  0  0  0  0  0  0  0  0  0  0
    6.5980   -5.4420   22.4480 C   0  0  0  0  0  0  0  0  0  0  0  0
    6.0920   -5.1540   23.7860 C   0  0  0  0  0  0  0  0  0  0  0  0
    5.9990   -3.7010   24.0130 C   0  0  0  0  0  0  0  0  0  0  0  0
    5.4010   -3.3030   25.3310 C   0  0  0  0  0  0  0  0  0  0  0  0
    4.5220   -2.4230   25.2790 O   0  0  0  0  0  0  0  0  0  0  0  0
    5.7390   -3.8190   26.6110 N   0  0  0  0  0  0  0  0  0  0  0  0
    5.9260   -5.2620   26.9240 C   0  0  0  0  0  0  0  0  0  0  0  0
    4.7700   -6.0460   27.4460 C   0  0  0  0  0  0  0  0  0  0  0  0
    3.2970   -5.9430   26.4280 S   0  0  0  0  0  0  0  0  0  0  0  0
    2.4060   -7.0390   27.5550 C   0  0  0  0  0  0  0  0  0  0  0  0
    3.2610   -7.3830   28.5720 C   0  0  0  0  0  0  0  0  0  0  0  0
    4.5400   -6.8650   28.5430 C   0  0  0  0  0  0  0  0  0  0  0  0
    5.5430   -7.3370   29.8320 S   0  0  0  0  0  0  0  0  0  0  0  0
    4.6820   -7.4340   31.3690 C   0  0  0  0  0  0  0  0  0  0  0  0
    6.6140   -6.2770   29.9420 O   0  0  0  0  0  0  0  0  0  0  0  0
    6.1740   -8.6560   29.5940 O   0  0  0  0  0  0  0  0  0  0  0  0
    7.2230   -2.9280   23.6200 C   0  0  0  0  0  0  0  0  0  0  0  0
    7.6700   -3.2390   22.3470 C   0  0  0  0  0  0  0  0  0  0  0  0
  1  2  1  0
  2  3  2  0
  2  4  1  0
  4  5  1  0
  5  6  1  0
  6  7  1  0
  7  8  1  0
  8  9  2  0
  8 10  1  0
 10 11  1  0
 11 12  1  0
 12 13  1  0
 13 14  1  0
 14 15  2  0
 12 16  2  0
 15 16  1  0
 16 17  1  0
 17 18  1  0
 17 19  2  0
 17 20  2  0
  7 21  1  0
  4 22  1  0
 21 22  1  0
M  END
