piperidine-amides-34871-covalent
     RDKit          3D

 33 36  0  0  0  0  0  0  0  0999 V2000
    7.0570   -3.3260   19.3440 C   0  0  0  0  0  0  0  0  0  0  0  0
    6.3850   -4.1890   20.3520 C   0  0  0  0  0  0  0  0  0  0  0  0
    5.3960   -4.8200   19.9760 O   0  0  0  0  0  0  0  0  0  0  0  0
    6.8960   -4.2930   21.6550 N   0  0  0  0  0  0  0  0  0  0  0  0
    6.6020   -5.4150   22.4900 C   0  0  0  0  0  0  0  0  0  0  0  0
    5.8060   -4.9310   23.6720 C   0  0  0  0  0  0  0  0  0  0  0  0
    6.5080   -3.7780   24.4170 C   0  0  0  0  0  0  0  0  0  0  0  0
    5.4340   -3.0530   25.1340 C   0  0  0  0  0  0  0  0  0  0  0  0
    4.5640   -2.4590   24.4900 O   0  0  0  0  0  0  0  0  0  0  0  0
    5.3670   -3.0310   26.5310 N   0  0  0  0  0  0  0  0  0  0  0  0
    5.6110   -4.3350   27.1530 C   0  0  0  0  0  0  0  0  0  0  0  0
    4.9000   -4.4510   28.4750 C   0  0  0  0  0  0  0  0  0  0  0  0
    3.9800   -3.4720   28.7870 C   0  0  0  0  0  0  0  0  0  0  0  0
    3.2780   -3.4440   29.8990 C   0  0  0  0  0  0  0  0  0  0  0  0
    3.4950   -4.4310   30.7400 C   0  0  0  0  0  0  0  0  0  0  0  0
    4.4510   -5.5640   30.5530 C   0  0  0  0  0  0  0  0  0  0  0  0
    5.3070   -5.6670   29.2930 C   0  0  0  0  0  0  0  0  0  0  0  0
    5.5880   -1.7470   27.2320 C   0  0  0  0  0  0  0  0  0  0  0  0
    5.8290   -1.6950   28.7190 C   0  0  0  0  0  0  0  0  0  0  0  0
    6.0720   -0.3850   29.3510 C   0  0  0  0  0  0  0  0  0  0  0  0
    6.0640    0.8680   28.5300 C   0  0  0  0  0  0  0  0  0  0  0  0
    6.2920    2.0520   29.2230 O   0  0  0  0  0  0  0  0  0  0  0  0
    5.2370    2.4740   29.9820 C   0  0  0  0  0  0  0  0  0  0  0  0
    4.0960    1.5200   29.7350 C   0  0  0  0  0  0  0  0  0  0  0  0
    3.7810    0.5350   30.6720 C   0  0  0  0  0  0  0  0  0  0  0  0
    2.6610   -0.4460   30.4900 C   0  0  0  0  0  0  0  0  0  0  0  0
    1.8570   -0.3330   29.2190 C   0  0  0  0  0  0  0  0  0  0  0  0
    2.2870    0.7670   28.2810 C   0  0  0  0  0  0  0  0  0  0  0  0
    3.3280    1.6230   28.5310 C   0  0  0  0  0  0  0  0  0  0  0  0
    5.8350    0.7780   27.1850 C   0  0  0  0  0  0  0  0  0  0  0  0
    5.5940   -0.5510   26.5150 C   0  0  0  0  0  0  0  0  0  0  0  0
    7.2750   -2.8090   23.5790 C   0  0  0  0  0  0  0  0  0  0  0  0
    7.6980   -3.2200   22.1900 C   0  0  0  0  0  0  0  0  0  0  0  0
  1  2  1  0
  2  3  2  0
  2  4  1  0
  4  5  1  0
  5  6  1  0
  6  7  1  0
  7  8  1  0
  8  9  2  0
  8 10  1  0
 10 11  1  0
 11 12  1  0
 12 13  2  0
 13 14  1  0
 14 15  2  0
 15 16  1  0
 12 17  1  0
 16 17  2  0
 10 18  1  0
 18 19  2  0
 19 20  1  0
 20 21  2  0
 21 22  1  0
 22 23  1  0
 23 24  1  0
 24 25  2  0
 25 26  1  0
 26 27  2  0
 27 28  1  0
 24 29  1  0
 28 29  2  0
 21 30  1  0
 18 31  1  0
 30 31  2  0
  7 32  1  0
  4 33  1  0
 32 33  1  0
M  END
