piperidine-amides-2671-covalent
     RDKit          3D

 25 27  0  0  0  0  0  0  0  0999 V2000
    7.0100   -3.3110   19.3260 C   0  0  0  0  0  0  0  0  0  0  0  0
    6.3610   -4.1860   20.3400 C   0  0  0  0  0  0  0  0  0  0  0  0
    5.3760   -4.8210   19.9710 O   0  0  0  0  0  0  0  0  0  0  0  0
    6.8790   -4.2990   21.6340 N   0  0  0  0  0  0  0  0  0  0  0  0
    6.6990   -5.4960   22.4130 C   0  0  0  0  0  0  0  0  0  0  0  0
    6.1270   -5.1330   23.7560 C   0  0  0  0  0  0  0  0  0  0  0  0
    6.2110   -3.6170   23.9640 C   0  0  0  0  0  0  0  0  0  0  0  0
    5.8610   -3.3020   25.3590 C   0  0  0  0  0  0  0  0  0  0  0  0
    4.6910   -3.4400   25.7410 O   0  0  0  0  0  0  0  0  0  0  0  0
    6.8540   -2.8420   26.2500 N   0  0  0  0  0  0  0  0  0  0  0  0
    6.6260   -1.6000   26.9610 C   0  0  0  0  0  0  0  0  0  0  0  0
    7.2220   -1.5830   28.3440 C   0  0  0  0  0  0  0  0  0  0  0  0
    7.1840   -0.5750   29.2670 C   0  0  0  0  0  0  0  0  0  0  0  0
    6.5260    0.5600   28.8850 C   0  0  0  0  0  0  0  0  0  0  0  0
    6.4400    1.6370   29.7660 F   0  0  0  0  0  0  0  0  0  0  0  0
    5.9490    0.6420   27.6390 C   0  0  0  0  0  0  0  0  0  0  0  0
    5.9670   -0.4510   26.5920 C   0  0  0  0  0  0  0  0  0  0  0  0
    5.3520   -0.2480   25.3800 O   0  0  0  0  0  0  0  0  0  0  0  0
    4.0800    0.3400   25.3660 C   0  0  0  0  0  0  0  0  0  0  0  0
    4.2720    1.6700   24.6470 C   0  0  0  0  0  0  0  0  0  0  0  0
    3.2890    2.5760   25.3180 C   0  0  0  0  0  0  0  0  0  0  0  0
    2.7710    1.8870   26.5150 C   0  0  0  0  0  0  0  0  0  0  0  0
    3.2510    0.4630   26.6100 C   0  0  0  0  0  0  0  0  0  0  0  0
    7.6070   -3.1350   23.6370 C   0  0  0  0  0  0  0  0  0  0  0  0
    7.8210   -3.3290   22.1650 C   0  0  0  0  0  0  0  0  0  0  0  0
  1  2  1  0
  2  3  2  0
  2  4  1  0
  4  5  1  0
  5  6  1  0
  6  7  1  0
  7  8  1  0
  8  9  2  0
  8 10  1  0
 10 11  1  0
 11 12  2  0
 12 13  1  0
 13 14  2  0
 14 15  1  0
 14 16  1  0
 11 17  1  0
 16 17  2  0
 17 18  1  0
 18 19  1  0
 19 20  1  0
 20 21  1  0
 21 22  1  0
 19 23  1  0
 22 23  1  0
  7 24  1  0
  4 25  1  0
 24 25  1  0
M  END
