piperidine-amides-12146-covalent
     RDKit          3D

 25 26  0  0  0  0  0  0  0  0999 V2000
    7.0280   -3.3550   19.3170 C   0  0  0  0  0  0  0  0  0  0  0  0
    6.3460   -4.1810   20.3090 C   0  0  0  0  0  0  0  0  0  0  0  0
    5.3610   -4.8350   19.9770 O   0  0  0  0  0  0  0  0  0  0  0  0
    6.8480   -4.2680   21.6530 N   0  0  0  0  0  0  0  0  0  0  0  0
    6.6120   -5.4650   22.4260 C   0  0  0  0  0  0  0  0  0  0  0  0
    5.9290   -5.1000   23.7150 C   0  0  0  0  0  0  0  0  0  0  0  0
    6.1330   -3.6060   23.8850 C   0  0  0  0  0  0  0  0  0  0  0  0
    5.7110   -3.1750   25.2460 C   0  0  0  0  0  0  0  0  0  0  0  0
    4.5310   -3.2190   25.6460 O   0  0  0  0  0  0  0  0  0  0  0  0
    6.7330   -2.7000   26.0910 N   0  0  0  0  0  0  0  0  0  0  0  0
    6.5680   -1.5060   26.8950 C   0  0  0  0  0  0  0  0  0  0  0  0
    6.9870   -1.4370   28.3460 C   0  0  0  0  0  0  0  0  0  0  0  0
    6.8210   -0.2700   29.0810 C   0  0  0  0  0  0  0  0  0  0  0  0
    7.3290   -0.1060   30.9150 Br  0  0  0  0  0  0  0  0  0  0  0  0
    6.2570    0.8670   28.4880 C   0  0  0  0  0  0  0  0  0  0  0  0
    5.8350    0.9350   27.1790 C   0  0  0  0  0  0  0  0  0  0  0  0
    5.9710   -0.2300   26.3340 C   0  0  0  0  0  0  0  0  0  0  0  0
    5.5360   -0.0560   25.0680 N   0  0  0  0  0  0  0  0  0  0  0  0
    5.1920    1.1920   24.4130 C   0  0  0  0  0  0  0  0  0  0  0  0
    4.2970    1.9920   24.9390 O   0  0  0  0  0  0  0  0  0  0  0  0
    5.7950    1.5790   23.2150 O   0  0  0  0  0  0  0  0  0  0  0  0
    5.0100    1.6410   22.0410 C   0  0  0  0  0  0  0  0  0  0  0  0
    5.6840    2.4700   21.1410 C   0  0  0  0  0  0  0  0  0  0  0  0
    7.4720   -3.1490   23.5750 C   0  0  0  0  0  0  0  0  0  0  0  0
    7.6900   -3.2270   22.2100 C   0  0  0  0  0  0  0  0  0  0  0  0
  1  2  1  0
  2  3  2  0
  2  4  1  0
  4  5  1  0
  5  6  1  0
  6  7  1  0
  7  8  1  0
  8  9  2  0
  8 10  1  0
 10 11  1  0
 11 12  2  0
 12 13  1  0
 13 14  1  0
 13 15  2  0
 15 16  1  0
 11 17  1  0
 16 17  2  0
 17 18  1  0
 18 19  1  0
 19 20  2  0
 19 21  1  0
 21 22  1  0
 22 23  1  0
  7 24  1  0
  4 25  1  0
 24 25  1  0
M  END
