piperidine-amides-24571-covalent
     RDKit          3D

 23 25  0  0  0  0  0  0  0  0999 V2000
    7.0370   -3.3550   19.3430 C   0  0  0  0  0  0  0  0  0  0  0  0
    6.3930   -4.2290   20.3370 C   0  0  0  0  0  0  0  0  0  0  0  0
    5.4010   -4.9120   20.0000 O   0  0  0  0  0  0  0  0  0  0  0  0
    6.9080   -4.3420   21.6430 N   0  0  0  0  0  0  0  0  0  0  0  0
    6.7100   -5.5770   22.3830 C   0  0  0  0  0  0  0  0  0  0  0  0
    6.0330   -5.1960   23.7070 C   0  0  0  0  0  0  0  0  0  0  0  0
    5.9780   -3.6940   23.6610 C   0  0  0  0  0  0  0  0  0  0  0  0
    5.2190   -3.0760   24.7680 C   0  0  0  0  0  0  0  0  0  0  0  0
    4.5910   -2.0360   24.5220 O   0  0  0  0  0  0  0  0  0  0  0  0
    5.1780   -3.6080   26.0540 N   0  0  0  0  0  0  0  0  0  0  0  0
    6.2710   -3.3230   26.8860 C   0  0  0  0  0  0  0  0  0  0  0  0
    6.2580   -4.4200   27.9120 C   0  0  1  0  0  0  0  0  0  0  0  0
    6.7180   -4.1660   29.0950 C   0  0  0  0  0  0  0  0  0  0  0  0
    6.4930   -2.9950   29.5390 O   0  0  0  0  0  0  0  0  0  0  0  0
    4.8140   -4.3630   28.1260 C   0  0  2  0  0  0  0  0  0  0  0  0
    4.1850   -5.5900   28.2530 C   0  0  0  0  0  0  0  0  0  0  0  0
    3.6720   -6.4040   27.2640 C   0  0  0  0  0  0  0  0  0  0  0  0
    3.0410   -7.6750   27.7450 C   0  0  0  0  0  0  0  0  0  0  0  0
    3.1710   -7.7220   29.5030 S   0  0  0  0  0  0  0  0  0  0  0  0
    3.9950   -6.1850   29.6290 C   0  0  0  0  0  0  0  0  0  0  0  0
    4.2900   -3.5270   27.2080 C   0  0  0  0  0  0  0  0  0  0  0  0
    7.3690   -3.1450   23.5660 C   0  0  0  0  0  0  0  0  0  0  0  0
    7.7220   -3.2740   22.2170 C   0  0  0  0  0  0  0  0  0  0  0  0
  1  2  1  0
  2  3  2  0
  2  4  1  0
  4  5  1  0
  5  6  1  0
  6  7  1  0
  7  8  1  0
  8  9  2  0
  8 10  1  0
 10 11  1  0
 11 12  1  0
 12 13  1  1
 13 14  1  0
 12 15  1  0
 15 16  1  6
 16 17  1  0
 17 18  2  0
 18 19  1  0
 16 20  2  0
 19 20  1  0
 10 21  1  0
 15 21  1  0
  7 22  1  0
  4 23  1  0
 22 23  1  0
M  END
