piperidine-amides-24371-covalent
     RDKit          3D

 23 25  0  0  0  0  0  0  0  0999 V2000
    7.0210   -3.3500   19.4180 C   0  0  0  0  0  0  0  0  0  0  0  0
    6.3630   -4.2410   20.3940 C   0  0  0  0  0  0  0  0  0  0  0  0
    5.4210   -4.9740   20.0120 O   0  0  0  0  0  0  0  0  0  0  0  0
    6.7990   -4.3010   21.7350 N   0  0  0  0  0  0  0  0  0  0  0  0
    6.6770   -5.5630   22.4560 C   0  0  0  0  0  0  0  0  0  0  0  0
    6.1770   -5.2640   23.8840 C   0  0  0  0  0  0  0  0  0  0  0  0
    6.2580   -3.7690   24.0190 C   0  0  0  0  0  0  0  0  0  0  0  0
    5.7910   -3.2040   25.3170 C   0  0  0  0  0  0  0  0  0  0  0  0
    5.2660   -2.0790   25.2540 O   0  0  0  0  0  0  0  0  0  0  0  0
    5.8450   -3.8520   26.5840 N   0  0  0  0  0  0  0  0  0  0  0  0
    4.7120   -3.5570   27.3950 C   0  0  0  0  0  0  0  0  0  0  0  0
    4.5380   -4.6410   28.4300 C   0  0  0  0  0  0  0  0  0  0  0  0
    5.5270   -4.9710   29.2980 C   0  0  0  0  0  0  0  0  0  0  0  0
    5.1190   -6.0100   30.1160 C   0  0  0  0  0  0  0  0  0  0  0  0
    5.8120   -6.5420   31.2660 N   0  0  0  0  0  0  0  0  0  0  0  0
    5.1640   -7.5500   31.9270 C   0  0  0  0  0  0  0  0  0  0  0  0
    5.6660   -8.1650   33.0480 C   0  0  0  0  0  0  0  0  0  0  0  0
    3.8360   -7.9620   31.3560 C   0  0  0  0  0  0  0  0  0  0  0  0
    3.5790   -6.9310   29.9490 S   0  0  0  0  0  0  0  0  0  0  0  0
    6.6470   -4.9980   28.5410 C   0  0  0  0  0  0  0  0  0  0  0  0
    6.4400   -3.6580   27.8770 C   0  0  0  0  0  0  0  0  0  0  0  0
    7.6380   -3.3060   23.6570 C   0  0  0  0  0  0  0  0  0  0  0  0
    7.6740   -3.2520   22.2550 C   0  0  0  0  0  0  0  0  0  0  0  0
  1  2  1  0
  2  3  2  0
  2  4  1  0
  4  5  1  0
  5  6  1  0
  6  7  1  0
  7  8  1  0
  8  9  2  0
  8 10  1  0
 10 11  1  0
 11 12  1  0
 12 13  1  0
 13 14  1  0
 14 15  2  0
 15 16  1  0
 16 17  1  0
 16 18  2  0
 14 19  1  0
 18 19  1  0
 13 20  1  0
 10 21  1  0
 20 21  1  0
  7 22  1  0
  4 23  1  0
 22 23  1  0
M  END
