piperidine-amides-28945-covalent
     RDKit          3D

 27 30  0  0  0  0  0  0  0  0999 V2000
    7.0140   -3.3650   19.4200 C   0  0  0  0  0  0  0  0  0  0  0  0
    6.3730   -4.2560   20.3880 C   0  0  0  0  0  0  0  0  0  0  0  0
    5.3900   -4.9110   19.9960 O   0  0  0  0  0  0  0  0  0  0  0  0
    6.8790   -4.3990   21.7080 N   0  0  0  0  0  0  0  0  0  0  0  0
    7.6560   -3.3230   22.2860 C   0  0  0  0  0  0  0  0  0  0  0  0
    7.3400   -3.1440   23.7450 C   0  0  0  0  0  0  0  0  0  0  0  0
    5.9910   -3.7910   23.9440 C   0  0  0  0  0  0  0  0  0  0  0  0
    5.2330   -3.2860   25.1490 C   0  0  0  0  0  0  0  0  0  0  0  0
    4.4080   -2.4240   24.8950 O   0  0  0  0  0  0  0  0  0  0  0  0
    5.4490   -3.7550   26.4370 N   0  0  0  0  0  0  0  0  0  0  0  0
    6.3940   -3.1040   27.1900 C   0  0  0  0  0  0  0  0  0  0  0  0
    6.7290   -3.8440   28.3240 C   0  0  0  0  0  0  0  0  0  0  0  0
    5.7330   -3.8790   29.1910 C   0  0  0  0  0  0  0  0  0  0  0  0
    5.4320   -2.6810   29.8270 C   0  0  0  0  0  0  0  0  0  0  0  0
    6.4970   -1.6720   29.5400 C   0  0  0  0  0  0  0  0  0  0  0  0
    6.3290   -0.2680   30.1820 C   0  0  0  0  0  0  0  0  0  0  0  0
    5.1150   -0.0500   31.0280 C   0  0  0  0  0  0  0  0  0  0  0  0
    4.1190   -1.1650   31.2290 C   0  0  0  0  0  0  0  0  0  0  0  0
    2.9070   -0.7720   32.1410 C   0  0  0  0  0  0  0  0  0  0  0  0
    1.9900   -1.7160   32.3590 N   0  0  0  0  0  0  0  0  0  0  0  0
    2.1760   -2.9920   31.7580 C   0  0  0  0  0  0  0  0  0  0  0  0
    3.2320   -3.3150   30.9710 C   0  0  0  0  0  0  0  0  0  0  0  0
    4.3650   -2.3950   30.6060 C   0  0  0  0  0  0  0  0  0  0  0  0
    4.6890   -4.7210   28.5590 C   0  0  0  0  0  0  0  0  0  0  0  0
    4.2570   -4.0080   27.2770 C   0  0  0  0  0  0  0  0  0  0  0  0
    6.1600   -5.2860   23.8640 C   0  0  0  0  0  0  0  0  0  0  0  0
    6.7190   -5.6220   22.4750 C   0  0  0  0  0  0  0  0  0  0  0  0
  1  2  1  0
  2  3  2  0
  2  4  1  0
  4  5  1  0
  5  6  1  0
  6  7  1  0
  7  8  1  0
  8  9  2  0
  8 10  1  0
 10 11  1  0
 11 12  1  0
 12 13  1  0
 13 14  1  0
 14 15  2  0
 15 16  1  0
 16 17  2  0
 17 18  1  0
 18 19  1  0
 19 20  2  0
 20 21  1  0
 21 22  2  0
 14 23  1  0
 18 23  2  0
 22 23  1  0
 13 24  1  0
 10 25  1  0
 24 25  1  0
  7 26  1  0
  4 27  1  0
 26 27  1  0
M  END
