piperidine-amides-4766-covalent
     RDKit          3D

 24 25  0  0  0  0  0  0  0  0999 V2000
    7.0910   -3.2810   19.2190 C   0  0  0  0  0  0  0  0  0  0  0  0
    6.3670   -4.0710   20.2420 C   0  0  0  0  0  0  0  0  0  0  0  0
    5.2930   -4.5940   19.8930 O   0  0  0  0  0  0  0  0  0  0  0  0
    6.9020   -4.2610   21.5190 N   0  0  0  0  0  0  0  0  0  0  0  0
    7.6210   -3.2000   22.1590 C   0  0  0  0  0  0  0  0  0  0  0  0
    7.0780   -2.7780   23.4460 C   0  0  0  0  0  0  0  0  0  0  0  0
    6.5080   -3.8700   24.2470 C   0  0  0  0  0  0  0  0  0  0  0  0
    5.7810   -3.3190   25.4150 C   0  0  0  0  0  0  0  0  0  0  0  0
    4.5510   -3.1360   25.3100 O   0  0  0  0  0  0  0  0  0  0  0  0
    6.4460   -3.0020   26.6120 N   0  0  0  0  0  0  0  0  0  0  0  0
    6.3720   -1.6530   27.2210 C   0  0  0  0  0  0  0  0  0  0  0  0
    5.8280   -0.4990   26.4800 C   0  0  0  0  0  0  0  0  0  0  0  0
    5.7630    0.8030   27.1150 C   0  0  0  0  0  0  0  0  0  0  0  0
    6.2190    0.9250   28.4120 C   0  0  0  0  0  0  0  0  0  0  0  0
    6.1320    2.5000   29.1650 Cl  0  0  0  0  0  0  0  0  0  0  0  0
    6.7380   -0.1470   29.1340 C   0  0  0  0  0  0  0  0  0  0  0  0
    7.1620    0.0560   30.4050 C   0  0  0  0  0  0  0  0  0  0  0  0
    8.5350    0.2920   30.4310 O   0  0  0  0  0  0  0  0  0  0  0  0
    6.3560    0.1030   31.5610 N   0  0  0  0  0  0  0  0  0  0  0  0
    6.9930    0.2100   32.8340 C   0  0  0  0  0  0  0  0  0  0  0  0
    5.1010   -0.6870   31.3600 C   0  0  0  0  0  0  0  0  0  0  0  0
    6.8360   -1.4210   28.5960 C   0  0  0  0  0  0  0  0  0  0  0  0
    5.7050   -4.8650   23.5040 C   0  0  0  0  0  0  0  0  0  0  0  0
    6.5140   -5.3910   22.3490 C   0  0  0  0  0  0  0  0  0  0  0  0
  1  2  1  0
  2  3  2  0
  2  4  1  0
  4  5  1  0
  5  6  1  0
  6  7  1  0
  7  8  1  0
  8  9  2  0
  8 10  1  0
 10 11  1  0
 11 12  2  0
 12 13  1  0
 13 14  2  0
 14 15  1  0
 14 16  1  0
 16 17  1  0
 17 18  2  0
 17 19  1  0
 19 20  1  0
 19 21  1  0
 11 22  1  0
 16 22  2  0
  7 23  1  0
  4 24  1  0
 23 24  1  0
M  END
