piperidine-amides-6877-covalent
     RDKit          3D

 22 23  0  0  0  0  0  0  0  0999 V2000
    7.0660   -3.2760   19.1930 C   0  0  0  0  0  0  0  0  0  0  0  0
    6.3210   -4.0280   20.2220 C   0  0  0  0  0  0  0  0  0  0  0  0
    5.2920   -4.6670   19.9140 O   0  0  0  0  0  0  0  0  0  0  0  0
    6.7640   -4.0810   21.5450 N   0  0  0  0  0  0  0  0  0  0  0  0
    7.6760   -3.0640   22.0270 C   0  0  0  0  0  0  0  0  0  0  0  0
    7.6710   -3.2050   23.5350 C   0  0  0  0  0  0  0  0  0  0  0  0
    6.2540   -3.5680   23.9000 C   0  0  0  0  0  0  0  0  0  0  0  0
    6.0910   -3.4330   25.3500 C   0  0  0  0  0  0  0  0  0  0  0  0
    4.9390   -3.4600   25.8440 O   0  0  0  0  0  0  0  0  0  0  0  0
    7.2760   -3.2560   26.1120 N   0  0  0  0  0  0  0  0  0  0  0  0
    7.4330   -3.8400   27.4090 C   0  0  2  0  0  0  0  0  0  0  0  0
    6.6680   -5.1530   27.4860 C   0  0  0  0  0  0  0  0  0  0  0  0
    6.9710   -2.8290   28.3900 C   0  0  0  0  0  0  0  0  0  0  0  0
    5.6300   -2.7200   28.8110 C   0  0  0  0  0  0  0  0  0  0  0  0
    5.1230   -1.7690   29.7550 C   0  0  0  0  0  0  0  0  0  0  0  0
    5.9640   -0.8550   30.3430 C   0  0  0  0  0  0  0  0  0  0  0  0
    5.3430    0.4140   31.5980 Br  0  0  0  0  0  0  0  0  0  0  0  0
    7.3580   -1.0170   29.8630 C   0  0  0  0  0  0  0  0  0  0  0  0
    7.7440    0.1240   30.7680 C   0  0  0  0  0  0  0  0  0  0  0  0
    7.8630   -1.9600   28.9160 C   0  0  0  0  0  0  0  0  0  0  0  0
    5.8870   -4.9720   23.4520 C   0  0  0  0  0  0  0  0  0  0  0  0
    6.6360   -5.3000   22.3100 C   0  0  0  0  0  0  0  0  0  0  0  0
  1  2  1  0
  2  3  2  0
  2  4  1  0
  4  5  1  0
  5  6  1  0
  6  7  1  0
  7  8  1  0
  8  9  2  0
  8 10  1  0
 10 11  1  0
 11 12  1  6
 11 13  1  0
 13 14  2  0
 14 15  1  0
 15 16  2  0
 16 17  1  0
 16 18  1  0
 18 19  1  0
 13 20  1  0
 18 20  2  0
  7 21  1  0
  4 22  1  0
 21 22  1  0
M  END
