piperidine-amides-30772-covalent
     RDKit          3D

 27 29  0  0  0  0  0  0  0  0999 V2000
    7.0830   -3.3830   19.4030 C   0  0  0  0  0  0  0  0  0  0  0  0
    6.3970   -4.2230   20.3780 C   0  0  0  0  0  0  0  0  0  0  0  0
    5.4070   -4.8810   20.0020 O   0  0  0  0  0  0  0  0  0  0  0  0
    6.8720   -4.3340   21.7030 N   0  0  0  0  0  0  0  0  0  0  0  0
    7.7110   -3.3470   22.3310 C   0  0  0  0  0  0  0  0  0  0  0  0
    7.0260   -2.9520   23.6180 C   0  0  0  0  0  0  0  0  0  0  0  0
    6.1860   -4.0320   24.2750 C   0  0  0  0  0  0  0  0  0  0  0  0
    5.1980   -3.4520   25.2380 C   0  0  0  0  0  0  0  0  0  0  0  0
    4.1650   -2.8870   24.7940 O   0  0  0  0  0  0  0  0  0  0  0  0
    5.3250   -3.4770   26.6510 N   0  0  0  0  0  0  0  0  0  0  0  0
    4.3150   -2.8730   27.5300 C   0  0  0  0  0  0  0  0  0  0  0  0
    4.4950   -3.3490   28.9320 C   0  0  0  0  0  0  0  0  0  0  0  0
    5.8300   -3.7750   29.3550 C   0  0  0  0  0  0  0  0  0  0  0  0
    6.5370   -4.4650   28.2930 C   0  0  1  0  0  0  0  0  0  0  0  0
    7.7150   -4.7310   28.8920 O   0  0  0  0  0  0  0  0  0  0  0  0
    5.6760   -5.6560   27.9830 C   0  0  0  0  0  0  0  0  0  0  0  0
    5.8810   -6.6690   29.0600 C   0  0  0  0  0  0  0  0  0  0  0  0
    6.6430   -7.7330   28.7750 N   0  0  0  0  0  0  0  0  0  0  0  0
    6.7240   -8.5500   29.7740 C   0  0  0  0  0  0  0  0  0  0  0  0
    7.4680   -9.8300   29.7770 C   0  0  0  0  0  0  0  0  0  0  0  0
    8.7490   -9.9760   29.3690 O   0  0  0  0  0  0  0  0  0  0  0  0
    9.3600  -11.2480   29.2530 C   0  0  0  0  0  0  0  0  0  0  0  0
    5.9780   -7.9420   30.7570 N   0  0  0  0  0  0  0  0  0  0  0  0
    5.4760   -6.8410   30.3580 O   0  0  0  0  0  0  0  0  0  0  0  0
    6.6110   -3.4280   27.1990 C   0  0  0  0  0  0  0  0  0  0  0  0
    5.4910   -4.9130   23.2130 C   0  0  0  0  0  0  0  0  0  0  0  0
    6.3430   -5.4060   22.5180 C   0  0  0  0  0  0  0  0  0  0  0  0
  1  2  1  0
  2  3  2  0
  2  4  1  0
  4  5  1  0
  5  6  1  0
  6  7  1  0
  7  8  1  0
  8  9  2  0
  8 10  1  0
 10 11  1  0
 11 12  1  0
 12 13  1  0
 13 14  1  0
 14 15  1  1
 14 16  1  0
 16 17  1  0
 17 18  2  0
 18 19  1  0
 19 20  1  0
 20 21  1  0
 21 22  1  0
 19 23  2  0
 17 24  1  0
 23 24  1  0
 10 25  1  0
 14 25  1  0
  7 26  1  0
  4 27  1  0
 26 27  1  0
M  END
