piperidine-amides-14456-covalent
     RDKit          3D

 23 25  0  0  0  0  0  0  0  0999 V2000
    7.0270   -3.3420   19.3290 C   0  0  0  0  0  0  0  0  0  0  0  0
    6.3780   -4.1780   20.3420 C   0  0  0  0  0  0  0  0  0  0  0  0
    5.3960   -4.8530   19.9850 O   0  0  0  0  0  0  0  0  0  0  0  0
    6.8780   -4.2430   21.6740 N   0  0  0  0  0  0  0  0  0  0  0  0
    7.7210   -3.1790   22.1770 C   0  0  0  0  0  0  0  0  0  0  0  0
    7.5140   -2.9580   23.6490 C   0  0  0  0  0  0  0  0  0  0  0  0
    6.1910   -3.5970   23.9690 C   0  0  0  0  0  0  0  0  0  0  0  0
    5.7810   -3.3390   25.3880 C   0  0  0  0  0  0  0  0  0  0  0  0
    4.7040   -3.8270   25.7230 O   0  0  0  0  0  0  0  0  0  0  0  0
    6.5940   -2.5660   26.2210 N   0  0  0  0  0  0  0  0  0  0  0  0
    5.9980   -1.6120   27.1020 C   0  0  2  0  0  0  0  0  0  0  0  0
    5.6910   -0.3540   26.5220 C   0  0  0  0  0  0  0  0  0  0  0  0
    5.3720    0.7040   27.3600 C   0  0  0  0  0  0  0  0  0  0  0  0
    6.2460    1.0070   28.3750 C   0  0  1  0  0  0  0  0  0  0  0  0
    6.0250    2.0200   29.3200 N   0  0  0  0  0  0  0  0  0  0  0  0
    6.8170    1.6130   30.4660 C   0  0  0  0  0  0  0  0  0  0  0  0
    7.0470    2.3560   31.5960 O   0  0  0  0  0  0  0  0  0  0  0  0
    7.2680    0.3790   30.2000 N   0  0  0  0  0  0  0  0  0  0  0  0
    8.2260   -0.3390   30.8040 C   0  0  0  0  0  0  0  0  0  0  0  0
    6.6140   -0.1440   29.0500 C   0  0  2  0  0  0  0  0  0  0  0  0
    7.0140   -1.3040   28.2060 C   0  0  0  0  0  0  0  0  0  0  0  0
    6.1180   -5.0410   23.7200 C   0  0  0  0  0  0  0  0  0  0  0  0
    6.6660   -5.4080   22.5120 C   0  0  0  0  0  0  0  0  0  0  0  0
  1  2  1  0
  2  3  2  0
  2  4  1  0
  4  5  1  0
  5  6  1  0
  6  7  1  0
  7  8  1  0
  8  9  2  0
  8 10  1  0
 11 10  1  6
 11 12  1  0
 12 13  1  0
 14 13  1  1
 14 15  1  0
 15 16  1  0
 16 17  2  0
 16 18  1  0
 18 19  1  0
 14 20  1  0
 18 20  1  0
 11 21  1  0
 20 21  1  6
  7 22  1  0
  4 23  1  0
 22 23  1  0
M  END
