piperidine-amides-25059-covalent
     RDKit          3D

 24 25  0  0  0  0  0  0  0  0999 V2000
    7.1370   -3.3120   19.2840 C   0  0  0  0  0  0  0  0  0  0  0  0
    6.3670   -4.1040   20.2670 C   0  0  0  0  0  0  0  0  0  0  0  0
    5.2990   -4.5900   19.8980 O   0  0  0  0  0  0  0  0  0  0  0  0
    6.9000   -4.3160   21.5330 N   0  0  0  0  0  0  0  0  0  0  0  0
    6.6500   -5.5320   22.2510 C   0  0  0  0  0  0  0  0  0  0  0  0
    5.8950   -5.1850   23.4910 C   0  0  0  0  0  0  0  0  0  0  0  0
    6.6390   -4.0750   24.2330 C   0  0  0  0  0  0  0  0  0  0  0  0
    5.7590   -3.7180   25.3590 C   0  0  0  0  0  0  0  0  0  0  0  0
    4.5340   -3.7860   25.1800 O   0  0  0  0  0  0  0  0  0  0  0  0
    6.2030   -3.2760   26.6220 N   0  0  0  0  0  0  0  0  0  0  0  0
    5.3280   -2.2520   27.1330 C   0  0  0  0  0  0  0  0  0  0  0  0
    4.4940   -3.0080   28.1490 C   0  0  2  0  0  0  0  0  0  0  0  0
    3.7620   -2.4340   29.1590 C   0  0  0  0  0  0  0  0  0  0  0  0
    3.1330   -3.1430   29.9980 O   0  0  0  0  0  0  0  0  0  0  0  0
    3.6970   -1.0680   29.2520 O   0  0  0  0  0  0  0  0  0  0  0  0
    3.3000   -0.3850   30.4420 C   0  0  0  0  0  0  0  0  0  0  0  0
    5.4490   -3.9550   28.8000 C   0  0  2  0  0  0  0  0  0  0  0  0
    5.6330   -2.5290   29.3130 C   0  0  0  0  0  0  0  0  0  0  0  0
    4.9150   -2.1040   30.2300 O   0  0  0  0  0  0  0  0  0  0  0  0
    6.6330   -1.7270   28.8380 O   0  0  0  0  0  0  0  0  0  0  0  0
    7.5380   -1.0530   29.6610 C   0  0  0  0  0  0  0  0  0  0  0  0
    6.3120   -4.2350   27.6920 C   0  0  0  0  0  0  0  0  0  0  0  0
    7.0390   -2.9040   23.4340 C   0  0  0  0  0  0  0  0  0  0  0  0
    7.6760   -3.2690   22.1480 C   0  0  0  0  0  0  0  0  0  0  0  0
  1  2  1  0
  2  3  2  0
  2  4  1  0
  4  5  1  0
  5  6  1  0
  6  7  1  0
  7  8  1  0
  8  9  2  0
  8 10  1  0
 10 11  1  0
 11 12  1  0
 12 13  1  1
 13 14  2  0
 13 15  1  0
 15 16  1  0
 12 17  1  0
 17 18  1  1
 18 19  2  0
 18 20  1  0
 20 21  1  0
 10 22  1  0
 17 22  1  0
  7 23  1  0
  4 24  1  0
 23 24  1  0
M  END
