piperidine-amides-8484-covalent
     RDKit          3D

 24 25  0  0  0  0  0  0  0  0999 V2000
    7.0950   -3.2820   19.2360 C   0  0  0  0  0  0  0  0  0  0  0  0
    6.3850   -4.0580   20.2460 C   0  0  0  0  0  0  0  0  0  0  0  0
    5.3300   -4.6220   19.9120 O   0  0  0  0  0  0  0  0  0  0  0  0
    6.9280   -4.2070   21.5490 N   0  0  0  0  0  0  0  0  0  0  0  0
    7.7080   -3.1450   22.1250 C   0  0  0  0  0  0  0  0  0  0  0  0
    6.9770   -2.5890   23.3030 C   0  0  0  0  0  0  0  0  0  0  0  0
    6.5990   -3.7610   24.1710 C   0  0  0  0  0  0  0  0  0  0  0  0
    5.7790   -3.2650   25.3260 C   0  0  0  0  0  0  0  0  0  0  0  0
    4.5670   -3.2080   25.1470 O   0  0  0  0  0  0  0  0  0  0  0  0
    6.4390   -2.8910   26.4990 N   0  0  0  0  0  0  0  0  0  0  0  0
    6.2920   -3.6050   27.7270 C   0  0  2  0  0  0  0  0  0  0  0  0
    5.9450   -4.9590   27.6200 C   0  0  0  0  0  0  0  0  0  0  0  0
    5.8660   -5.5890   26.5430 O   0  0  0  0  0  0  0  0  0  0  0  0
    5.6540   -5.6650   28.7600 O   0  0  0  0  0  0  0  0  0  0  0  0
    6.2950   -6.7410   29.3150 C   0  0  0  0  0  0  0  0  0  0  0  0
    5.1960   -2.9150   28.4780 C   0  0  0  0  0  0  0  0  0  0  0  0
    3.8780   -3.6370   28.4290 C   0  0  0  0  0  0  0  0  0  0  0  0
    2.6330   -3.0600   29.1580 C   0  0  0  0  0  0  0  0  0  0  0  0
    2.8070   -1.7830   29.8920 C   0  0  0  0  0  0  0  0  0  0  0  0
    4.1450   -1.1150   29.9050 C   0  0  0  0  0  0  0  0  0  0  0  0
    5.3580   -1.7140   29.1720 C   0  0  0  0  0  0  0  0  0  0  0  0
    6.5820   -1.0850   29.1950 F   0  0  0  0  0  0  0  0  0  0  0  0
    5.7330   -4.7330   23.3770 C   0  0  0  0  0  0  0  0  0  0  0  0
    6.5160   -5.2980   22.3910 C   0  0  0  0  0  0  0  0  0  0  0  0
  1  2  1  0
  2  3  2  0
  2  4  1  0
  4  5  1  0
  5  6  1  0
  6  7  1  0
  7  8  1  0
  8  9  2  0
  8 10  1  0
 11 10  1  6
 11 12  1  0
 12 13  2  0
 12 14  1  0
 14 15  1  0
 11 16  1  0
 16 17  2  0
 17 18  1  0
 18 19  2  0
 19 20  1  0
 16 21  1  0
 20 21  2  0
 21 22  1  0
  7 23  1  0
  4 24  1  0
 23 24  1  0
M  END
