piperidine-amides-14222-covalent
     RDKit          3D

 24 25  0  0  0  0  0  0  0  0999 V2000
    7.0900   -3.2630   19.2550 C   0  0  0  0  0  0  0  0  0  0  0  0
    6.3200   -4.0490   20.2630 C   0  0  0  0  0  0  0  0  0  0  0  0
    5.2810   -4.6260   19.9080 O   0  0  0  0  0  0  0  0  0  0  0  0
    6.8060   -4.1580   21.5840 N   0  0  0  0  0  0  0  0  0  0  0  0
    6.6420   -5.3930   22.3110 C   0  0  0  0  0  0  0  0  0  0  0  0
    6.1550   -5.0760   23.7360 C   0  0  0  0  0  0  0  0  0  0  0  0
    6.2370   -3.6000   23.9580 C   0  0  0  0  0  0  0  0  0  0  0  0
    5.6920   -3.2010   25.2740 C   0  0  0  0  0  0  0  0  0  0  0  0
    4.4620   -3.0890   25.3400 O   0  0  0  0  0  0  0  0  0  0  0  0
    6.5410   -2.9650   26.3610 N   0  0  0  0  0  0  0  0  0  0  0  0
    6.2510   -3.2250   27.7290 C   0  0  0  0  0  0  0  0  0  0  0  0
    5.6010   -4.3410   28.1850 C   0  0  0  0  0  0  0  0  0  0  0  0
    6.1980   -5.5060   28.7240 C   0  0  0  0  0  0  0  0  0  0  0  0
    5.5010   -6.5980   29.1700 C   0  0  0  0  0  0  0  0  0  0  0  0
    4.0290   -6.6070   29.1080 C   0  0  0  0  0  0  0  0  0  0  0  0
    3.1850   -7.7880   29.5880 C   0  0  0  0  0  0  0  0  0  0  0  0
    2.4920   -7.2440   30.8410 C   0  0  0  0  0  0  0  0  0  0  0  0
    3.3470   -7.1790   31.9300 O   0  0  0  0  0  0  0  0  0  0  0  0
    1.1610   -6.8590   30.8960 O   0  0  0  0  0  0  0  0  0  0  0  0
    0.4420   -7.0340   32.0920 C   0  0  0  0  0  0  0  0  0  0  0  0
    3.4270   -5.5030   28.5950 C   0  0  0  0  0  0  0  0  0  0  0  0
    4.1040   -4.2490   28.0760 C   0  0  0  0  0  0  0  0  0  0  0  0
    7.6110   -3.2040   23.6600 C   0  0  0  0  0  0  0  0  0  0  0  0
    7.6610   -3.1210   22.1250 C   0  0  0  0  0  0  0  0  0  0  0  0
  1  2  1  0
  2  3  2  0
  2  4  1  0
  4  5  1  0
  5  6  1  0
  6  7  1  0
  7  8  1  0
  8  9  2  0
  8 10  1  0
 10 11  1  0
 11 12  1  0
 12 13  2  0
 13 14  1  0
 14 15  2  0
 15 16  1  0
 16 17  1  0
 17 18  2  0
 17 19  1  0
 19 20  1  0
 15 21  1  0
 12 22  1  0
 21 22  2  0
  7 23  1  0
  4 24  1  0
 23 24  1  0
M  END
