piperidine-amides-1975-covalent
     RDKit          3D

 21 22  0  0  0  0  0  0  0  0999 V2000
    7.0760   -3.2830   19.2580 C   0  0  0  0  0  0  0  0  0  0  0  0
    6.3580   -4.0820   20.2880 C   0  0  0  0  0  0  0  0  0  0  0  0
    5.3200   -4.6320   19.9200 O   0  0  0  0  0  0  0  0  0  0  0  0
    6.8720   -4.2340   21.5880 N   0  0  0  0  0  0  0  0  0  0  0  0
    6.5870   -5.4180   22.3590 C   0  0  0  0  0  0  0  0  0  0  0  0
    6.0240   -5.0540   23.7170 C   0  0  0  0  0  0  0  0  0  0  0  0
    5.9740   -3.5320   23.9060 C   0  0  0  0  0  0  0  0  0  0  0  0
    5.5940   -3.2330   25.3020 C   0  0  0  0  0  0  0  0  0  0  0  0
    4.4030   -3.0340   25.5730 O   0  0  0  0  0  0  0  0  0  0  0  0
    6.5730   -3.1600   26.3040 N   0  0  0  0  0  0  0  0  0  0  0  0
    6.2220   -3.3060   27.7040 C   0  0  0  0  0  0  0  0  0  0  0  0
    5.3560   -4.5280   27.9200 C   0  0  0  0  0  0  0  0  0  0  0  0
    5.5710   -6.0710   26.8130 Br  0  0  0  0  0  0  0  0  0  0  0  0
    4.3800   -4.6150   28.8800 C   0  0  0  0  0  0  0  0  0  0  0  0
    4.0920   -3.5940   29.7390 C   0  0  0  0  0  0  0  0  0  0  0  0
    3.5010   -4.1160   30.8620 C   0  0  0  0  0  0  0  0  0  0  0  0
    2.2700   -4.5860   30.5360 O   0  0  0  0  0  0  0  0  0  0  0  0
    2.1670   -5.3720   29.4460 C   0  0  0  0  0  0  0  0  0  0  0  0
    3.5400   -5.8280   29.0690 C   0  0  0  0  0  0  0  0  0  0  0  0
    7.2330   -2.8540   23.5520 C   0  0  0  0  0  0  0  0  0  0  0  0
    7.6330   -3.1520   22.1580 C   0  0  0  0  0  0  0  0  0  0  0  0
  1  2  1  0
  2  3  2  0
  2  4  1  0
  4  5  1  0
  5  6  1  0
  6  7  1  0
  7  8  1  0
  8  9  2  0
  8 10  1  0
 10 11  1  0
 11 12  1  0
 12 13  1  0
 12 14  2  3
 14 15  1  0
 15 16  1  0
 16 17  1  0
 17 18  1  0
 14 19  1  0
 18 19  1  0
  7 20  1  0
  4 21  1  0
 20 21  1  0
M  END
