piperidine-amides-4279-covalent
     RDKit          3D

 26 27  0  0  0  0  0  0  0  0999 V2000
    7.1180   -3.2810   19.2080 C   0  0  0  0  0  0  0  0  0  0  0  0
    6.3740   -4.0450   20.2230 C   0  0  0  0  0  0  0  0  0  0  0  0
    5.2690   -4.5160   19.8740 O   0  0  0  0  0  0  0  0  0  0  0  0
    6.9140   -4.3040   21.5070 N   0  0  0  0  0  0  0  0  0  0  0  0
    7.5900   -3.2500   22.1790 C   0  0  0  0  0  0  0  0  0  0  0  0
    7.1140   -3.0340   23.5350 C   0  0  0  0  0  0  0  0  0  0  0  0
    5.8750   -3.7740   23.8630 C   0  0  0  0  0  0  0  0  0  0  0  0
    5.4550   -3.5330   25.2710 C   0  0  0  0  0  0  0  0  0  0  0  0
    4.2730   -3.2230   25.5110 O   0  0  0  0  0  0  0  0  0  0  0  0
    6.3680   -3.6420   26.3320 N   0  0  0  0  0  0  0  0  0  0  0  0
    7.1280   -2.5930   26.8480 C   0  0  2  0  0  0  0  0  0  0  0  0
    8.0430   -2.7100   27.9550 C   0  0  0  0  0  0  0  0  0  0  0  0
    8.1330   -3.8190   28.5600 O   0  0  0  0  0  0  0  0  0  0  0  0
    8.8510   -1.6500   28.3440 O   0  0  0  0  0  0  0  0  0  0  0  0
    8.4170   -0.4610   28.9920 C   0  0  0  0  0  0  0  0  0  0  0  0
    9.1240    0.2920   29.9090 C   0  0  0  0  0  0  0  0  0  0  0  0
    7.8210   -0.4660   30.4070 C   0  0  0  0  0  0  0  0  0  0  0  0
    7.9960    0.6880   28.1640 C   0  0  0  0  0  0  0  0  0  0  0  0
    6.2280   -1.6500   27.6930 C   0  0  0  0  0  0  0  0  0  0  0  0
    5.9690   -2.5420   28.8780 C   0  0  0  0  0  0  0  0  0  0  0  0
    5.0890   -1.9070   29.9340 C   0  0  0  0  0  0  0  0  0  0  0  0
    4.5640   -0.4820   29.7180 C   0  0  0  0  0  0  0  0  0  0  0  0
    4.9400    0.2350   28.4630 C   0  0  0  0  0  0  0  0  0  0  0  0
    5.7570   -0.3500   27.4800 C   0  0  0  0  0  0  0  0  0  0  0  0
    5.8950   -5.2260   23.5290 C   0  0  0  0  0  0  0  0  0  0  0  0
    6.5460   -5.5100   22.1960 C   0  0  0  0  0  0  0  0  0  0  0  0
  1  2  1  0
  2  3  2  0
  2  4  1  0
  4  5  1  0
  5  6  1  0
  6  7  1  0
  7  8  1  0
  8  9  2  0
  8 10  1  0
 11 10  1  1
 11 12  1  0
 12 13  2  0
 12 14  1  0
 15 14  1  0
 15 16  1  0
 15 17  1  0
 15 18  1  0
 11 19  1  0
 19 20  2  0
 20 21  1  0
 21 22  2  0
 22 23  1  0
 19 24  1  0
 23 24  2  0
  7 25  1  0
  4 26  1  0
 25 26  1  0
M  END
