piperidine-amides-33519-covalent
     RDKit          3D

 25 26  0  0  0  0  0  0  0  0999 V2000
    7.0900   -3.3860   19.3470 C   0  0  0  0  0  0  0  0  0  0  0  0
    6.4000   -4.1950   20.3580 C   0  0  0  0  0  0  0  0  0  0  0  0
    5.3720   -4.8090   19.9820 O   0  0  0  0  0  0  0  0  0  0  0  0
    6.9230   -4.3170   21.6790 N   0  0  0  0  0  0  0  0  0  0  0  0
    6.5360   -5.4170   22.4910 C   0  0  0  0  0  0  0  0  0  0  0  0
    6.0780   -5.0040   23.8160 C   0  0  0  0  0  0  0  0  0  0  0  0
    6.1450   -3.5430   24.0080 C   0  0  0  0  0  0  0  0  0  0  0  0
    5.6020   -3.0550   25.3300 C   0  0  0  0  0  0  0  0  0  0  0  0
    4.4290   -2.6380   25.3440 O   0  0  0  0  0  0  0  0  0  0  0  0
    6.3070   -3.0500   26.5580 N   0  0  0  0  0  0  0  0  0  0  0  0
    6.1660   -4.0690   27.5300 C   0  0  0  0  0  0  0  0  0  0  0  0
    5.6970   -5.4000   27.1640 C   0  0  0  0  0  0  0  0  0  0  0  0
    5.0490   -6.1900   28.0160 N   0  0  0  0  0  0  0  0  0  0  0  0
    5.7070   -6.6550   29.1990 C   0  0  0  0  0  0  0  0  0  0  0  0
    5.4790   -7.8510   29.8090 C   0  0  0  0  0  0  0  0  0  0  0  0
    6.6400   -5.8650   29.8170 O   0  0  0  0  0  0  0  0  0  0  0  0
    6.3880   -1.7550   27.2690 C   0  0  0  0  0  0  0  0  0  0  0  0
    5.8400   -0.6770   26.3860 C   0  0  0  0  0  0  0  0  0  0  0  0
    5.9340    0.6220   27.2050 C   0  0  0  0  0  0  0  0  0  0  0  0
    6.4470    0.8940   28.5970 C   0  0  0  0  0  0  0  0  0  0  0  0
    6.4650    2.6070   29.4240 Br  0  0  0  0  0  0  0  0  0  0  0  0
    6.9670   -0.3330   29.3210 C   0  0  0  0  0  0  0  0  0  0  0  0
    6.8940   -1.5830   28.5910 N   0  0  0  0  0  0  0  0  0  0  0  0
    7.5430   -3.0210   23.6810 C   0  0  0  0  0  0  0  0  0  0  0  0
    7.6900   -3.1560   22.1990 C   0  0  0  0  0  0  0  0  0  0  0  0
  1  2  1  0
  2  3  2  0
  2  4  1  0
  4  5  1  0
  5  6  1  0
  6  7  1  0
  7  8  1  0
  8  9  2  0
  8 10  1  0
 10 11  1  0
 11 12  1  0
 12 13  1  0
 13 14  1  0
 14 15  1  0
 14 16  2  0
 10 17  1  0
 17 18  2  0
 18 19  1  0
 19 20  2  0
 20 21  1  0
 20 22  1  0
 17 23  1  0
 22 23  2  0
  7 24  1  0
  4 25  1  0
 24 25  1  0
M  END
