piperidine-amides-8569-covalent
     RDKit          3D

 24 25  0  0  0  0  0  0  0  0999 V2000
    7.0110   -3.3350   19.3680 C   0  0  0  0  0  0  0  0  0  0  0  0
    6.3600   -4.1850   20.3680 C   0  0  0  0  0  0  0  0  0  0  0  0
    5.4020   -4.8820   19.9920 O   0  0  0  0  0  0  0  0  0  0  0  0
    6.8320   -4.2370   21.7130 N   0  0  0  0  0  0  0  0  0  0  0  0
    7.6810   -3.1800   22.2210 C   0  0  0  0  0  0  0  0  0  0  0  0
    7.3910   -2.9240   23.6730 C   0  0  0  0  0  0  0  0  0  0  0  0
    6.0700   -3.5890   23.9230 C   0  0  0  0  0  0  0  0  0  0  0  0
    5.5430   -3.2550   25.2920 C   0  0  0  0  0  0  0  0  0  0  0  0
    4.3220   -3.2870   25.4160 O   0  0  0  0  0  0  0  0  0  0  0  0
    6.4320   -2.9330   26.3130 N   0  0  0  0  0  0  0  0  0  0  0  0
    6.3810   -1.6760   26.9950 C   0  0  0  0  0  0  0  0  0  0  0  0
    5.7980   -0.4550   26.6000 C   0  0  0  0  0  0  0  0  0  0  0  0
    5.8350    0.6970   27.3840 C   0  0  0  0  0  0  0  0  0  0  0  0
    6.4580    0.7460   28.6310 C   0  0  0  0  0  0  0  0  0  0  0  0
    6.5800    1.8240   29.5250 N   0  0  0  0  0  0  0  0  0  0  0  0
    5.1900    2.6180   30.1910 S   0  0  0  0  0  0  0  0  0  0  0  0
    4.0570    2.9970   28.8380 C   0  0  0  0  0  0  0  0  0  0  0  0
    4.5620    1.7310   31.2410 O   0  0  0  0  0  0  0  0  0  0  0  0
    5.5760    3.8930   30.8710 O   0  0  0  0  0  0  0  0  0  0  0  0
    7.0630   -0.3640   29.1360 C   0  0  0  0  0  0  0  0  0  0  0  0
    7.7670   -0.4700   30.4370 C   0  0  0  0  0  0  0  0  0  0  0  0
    7.0530   -1.6250   28.3500 C   0  0  0  0  0  0  0  0  0  0  0  0
    6.0570   -5.0480   23.7460 C   0  0  0  0  0  0  0  0  0  0  0  0
    6.6380   -5.4120   22.5420 C   0  0  0  0  0  0  0  0  0  0  0  0
  1  2  1  0
  2  3  2  0
  2  4  1  0
  4  5  1  0
  5  6  1  0
  6  7  1  0
  7  8  1  0
  8  9  2  0
  8 10  1  0
 10 11  1  0
 11 12  2  0
 12 13  1  0
 13 14  2  0
 14 15  1  0
 16 15  1  0
 16 17  1  0
 16 18  2  0
 16 19  2  0
 14 20  1  0
 20 21  1  0
 11 22  1  0
 20 22  2  0
  7 23  1  0
  4 24  1  0
 23 24  1  0
M  END
