piperidine-amides-10775-covalent
     RDKit          3D

 22 23  0  0  0  0  0  0  0  0999 V2000
    7.0560   -3.3340   19.3090 C   0  0  0  0  0  0  0  0  0  0  0  0
    6.3810   -4.1460   20.3250 C   0  0  0  0  0  0  0  0  0  0  0  0
    5.4040   -4.8390   19.9860 O   0  0  0  0  0  0  0  0  0  0  0  0
    6.8390   -4.1920   21.6550 N   0  0  0  0  0  0  0  0  0  0  0  0
    7.7520   -3.1780   22.1730 C   0  0  0  0  0  0  0  0  0  0  0  0
    7.4500   -3.0160   23.6340 C   0  0  0  0  0  0  0  0  0  0  0  0
    6.1140   -3.5900   23.9670 C   0  0  0  0  0  0  0  0  0  0  0  0
    5.6870   -3.2850   25.3540 C   0  0  0  0  0  0  0  0  0  0  0  0
    4.4960   -3.5180   25.7130 O   0  0  0  0  0  0  0  0  0  0  0  0
    6.5490   -2.7170   26.3160 N   0  0  0  0  0  0  0  0  0  0  0  0
    6.0680   -1.5960   27.1580 C   0  0  1  0  0  0  0  0  0  0  0  0
    7.0440   -1.4340   28.2430 C   0  0  0  0  0  0  0  0  0  0  0  0
    6.6960   -0.4320   29.2510 C   0  0  0  0  0  0  0  0  0  0  0  0
    6.1160    0.8320   28.6480 C   0  0  0  0  0  0  0  0  0  0  0  0
    5.6420    0.6970   27.2940 N   0  0  0  0  0  0  0  0  0  0  0  0
    4.5220    1.6240   27.1430 C   0  0  0  0  0  0  0  0  0  0  0  0
    4.9020    2.8310   27.9190 C   0  0  0  0  0  0  0  0  0  0  0  0
    3.3610    1.0640   27.9820 C   0  0  0  0  0  0  0  0  0  0  0  0
    3.9430    1.9400   25.9290 C   0  0  0  0  0  0  0  0  0  0  0  0
    5.8170   -0.3820   26.4980 C   0  0  0  0  0  0  0  0  0  0  0  0
    6.0060   -5.0710   23.7270 C   0  0  0  0  0  0  0  0  0  0  0  0
    6.6980   -5.4130   22.4260 C   0  0  0  0  0  0  0  0  0  0  0  0
  1  2  1  0
  2  3  2  0
  2  4  1  0
  4  5  1  0
  5  6  1  0
  6  7  1  0
  7  8  1  0
  8  9  2  0
  8 10  1  0
 11 10  1  6
 11 12  1  0
 12 13  1  0
 13 14  1  0
 14 15  1  0
 15 16  1  0
 16 17  1  0
 16 18  1  0
 16 19  1  0
 11 20  1  0
 15 20  1  0
  7 21  1  0
  4 22  1  0
 21 22  1  0
M  END
