piperidine-amides-19507-covalent
     RDKit          3D

 22 23  0  0  0  0  0  0  0  0999 V2000
    7.1660   -3.2990   19.3630 C   0  0  0  0  0  0  0  0  0  0  0  0
    6.4420   -4.0980   20.3240 C   0  0  0  0  0  0  0  0  0  0  0  0
    5.3760   -4.6870   19.9440 O   0  0  0  0  0  0  0  0  0  0  0  0
    6.9090   -4.2730   21.6430 N   0  0  0  0  0  0  0  0  0  0  0  0
    7.7240   -3.1960   22.2500 C   0  0  0  0  0  0  0  0  0  0  0  0
    6.6910   -2.6460   23.3000 C   0  0  0  0  0  0  0  0  0  0  0  0
    6.3770   -3.8340   24.1730 C   0  0  0  0  0  0  0  0  0  0  0  0
    5.4530   -3.4730   25.4190 C   0  0  0  0  0  0  0  0  0  0  0  0
    4.3160   -3.8650   25.2090 O   0  0  0  0  0  0  0  0  0  0  0  0
    6.1130   -2.8600   26.3210 N   0  0  0  0  0  0  0  0  0  0  0  0
    6.7830   -1.8250   26.9000 C   0  0  0  0  0  0  0  0  0  0  0  0
    6.0330   -3.7120   27.4520 C   0  0  2  0  0  0  0  0  0  0  0  0
    5.9060   -5.1110   27.1810 C   0  0  0  0  0  0  0  0  0  0  0  0
    4.7340   -3.3730   28.2170 C   0  0  0  0  0  0  0  0  0  0  0  0
    4.6170   -4.6340   29.0110 C   0  0  0  0  0  0  0  0  0  0  0  0
    3.4350   -4.5310   29.8170 C   0  0  0  0  0  0  0  0  0  0  0  0
    2.3440   -3.5950   30.0930 C   0  0  0  0  0  0  0  0  0  0  0  0
    2.7050   -2.3960   29.1590 C   0  0  0  0  0  0  0  0  0  0  0  0
    3.8920   -2.2220   28.1920 C   0  0  0  0  0  0  0  0  0  0  0  0
    4.0870   -1.2090   27.4830 O   0  0  0  0  0  0  0  0  0  0  0  0
    5.6960   -4.9590   23.3640 C   0  0  0  0  0  0  0  0  0  0  0  0
    6.5880   -5.4320   22.4410 C   0  0  0  0  0  0  0  0  0  0  0  0
  1  2  1  0
  2  3  2  0
  2  4  1  0
  4  5  1  0
  5  6  1  0
  6  7  1  0
  7  8  1  0
  8  9  2  0
  8 10  1  0
 10 11  1  0
 10 12  1  0
 12 13  1  6
 12 14  1  0
 14 15  2  0
 15 16  1  0
 16 17  2  0
 17 18  1  0
 14 19  1  0
 18 19  2  0
 19 20  1  0
  7 21  1  0
  4 22  1  0
 21 22  1  0
M  END
