piperidine-amides-2066-covalent
     RDKit          3D

 20 22  0  0  0  0  0  0  0  0999 V2000
    7.0560   -3.3350   19.3610 C   0  0  0  0  0  0  0  0  0  0  0  0
    6.3990   -4.1990   20.3730 C   0  0  0  0  0  0  0  0  0  0  0  0
    5.4250   -4.8550   19.9940 O   0  0  0  0  0  0  0  0  0  0  0  0
    6.9190   -4.2700   21.6780 N   0  0  0  0  0  0  0  0  0  0  0  0
    7.7380   -3.2020   22.2210 C   0  0  0  0  0  0  0  0  0  0  0  0
    7.3940   -2.9220   23.6660 C   0  0  0  0  0  0  0  0  0  0  0  0
    6.0280   -3.5210   23.9860 C   0  0  0  0  0  0  0  0  0  0  0  0
    5.6230   -3.1370   25.3620 C   0  0  0  0  0  0  0  0  0  0  0  0
    4.4170   -3.0820   25.6260 O   0  0  0  0  0  0  0  0  0  0  0  0
    6.5720   -2.8500   26.3650 N   0  0  0  0  0  0  0  0  0  0  0  0
    6.5880   -1.5790   27.0790 C   0  0  1  0  0  0  0  0  0  0  0  0
    5.8160   -0.5290   26.3070 C   0  0  0  0  0  0  0  0  0  0  0  0
    5.2560    0.5110   26.9920 C   0  0  0  0  0  0  0  0  0  0  0  0
    5.2640    0.3140   28.3270 C   0  0  2  0  0  0  0  0  0  0  0  0
    6.4920    0.4160   28.8650 C   0  0  0  0  0  0  0  0  0  0  0  0
    7.2860   -0.8630   28.9970 C   0  0  0  0  0  0  0  0  0  0  0  0
    6.0980   -1.6450   28.5100 C   0  0  1  0  0  0  0  0  0  0  0  0
    4.9030   -0.9740   28.6660 O   0  0  0  0  0  0  0  0  0  0  0  0
    5.9870   -4.9830   23.7940 C   0  0  0  0  0  0  0  0  0  0  0  0
    6.5500   -5.4030   22.4800 C   0  0  0  0  0  0  0  0  0  0  0  0
  1  2  1  0
  2  3  2  0
  2  4  1  0
  4  5  1  0
  5  6  1  0
  6  7  1  0
  7  8  1  0
  8  9  2  0
  8 10  1  0
 11 10  1  6
 11 12  1  0
 12 13  1  0
 14 13  1  6
 14 15  1  0
 15 16  1  0
 11 17  1  0
 17 16  1  1
 14 18  1  0
 17 18  1  0
  7 19  1  0
  4 20  1  0
 19 20  1  0
M  END
