piperidine-amides-29830-covalent
     RDKit          3D

 27 30  0  0  0  0  0  0  0  0999 V2000
    7.0890   -3.3500   19.3610 C   0  0  0  0  0  0  0  0  0  0  0  0
    6.3940   -4.2150   20.3020 C   0  0  0  0  0  0  0  0  0  0  0  0
    5.3600   -4.7900   19.9680 O   0  0  0  0  0  0  0  0  0  0  0  0
    6.9580   -4.4480   21.6030 N   0  0  0  0  0  0  0  0  0  0  0  0
    7.6880   -3.4140   22.2860 C   0  0  0  0  0  0  0  0  0  0  0  0
    6.8630   -2.8510   23.4040 C   0  0  0  0  0  0  0  0  0  0  0  0
    6.3400   -3.9920   24.2680 C   0  0  0  0  0  0  0  0  0  0  0  0
    5.2970   -3.4480   25.1870 C   0  0  0  0  0  0  0  0  0  0  0  0
    4.3360   -2.8030   24.7460 O   0  0  0  0  0  0  0  0  0  0  0  0
    5.3730   -3.6480   26.5840 N   0  0  0  0  0  0  0  0  0  0  0  0
    6.4970   -3.0690   27.1870 C   0  0  0  0  0  0  0  0  0  0  0  0
    6.7670   -3.9780   28.3530 C   0  0  0  0  0  0  0  0  0  0  0  0
    5.7550   -4.0310   29.2050 C   0  0  0  0  0  0  0  0  0  0  0  0
    5.4290   -2.7910   29.7810 C   0  0  0  0  0  0  0  0  0  0  0  0
    4.3220   -2.3730   30.4690 C   0  0  0  0  0  0  0  0  0  0  0  0
    4.4920   -1.0460   30.8380 N   0  0  0  0  0  0  0  0  0  0  0  0
    3.6020   -0.1660   31.5810 C   0  0  0  0  0  0  0  0  0  0  0  0
    3.9300    1.1390   31.8680 C   0  0  0  0  0  0  0  0  0  0  0  0
    3.0960    1.9400   32.5570 F   0  0  0  0  0  0  0  0  0  0  0  0
    5.1250    1.6120   31.4400 C   0  0  0  0  0  0  0  0  0  0  0  0
    5.9880    0.8110   30.7370 C   0  0  0  0  0  0  0  0  0  0  0  0
    5.6970   -0.5860   30.4010 C   0  0  0  0  0  0  0  0  0  0  0  0
    6.2700   -1.6880   29.7400 N   0  0  0  0  0  0  0  0  0  0  0  0
    4.5900   -4.4250   28.6320 C   0  0  0  0  0  0  0  0  0  0  0  0
    4.2450   -3.6750   27.5050 C   0  0  0  0  0  0  0  0  0  0  0  0
    5.6770   -5.0900   23.4620 C   0  0  0  0  0  0  0  0  0  0  0  0
    6.6050   -5.6080   22.3610 C   0  0  0  0  0  0  0  0  0  0  0  0
  1  2  1  0
  2  3  2  0
  2  4  1  0
  4  5  1  0
  5  6  1  0
  6  7  1  0
  7  8  1  0
  8  9  2  0
  8 10  1  0
 10 11  1  0
 11 12  1  0
 12 13  1  0
 13 14  1  0
 14 15  2  0
 15 16  1  0
 16 17  1  0
 17 18  2  0
 18 19  1  0
 18 20  1  0
 20 21  2  0
 16 22  1  0
 21 22  1  0
 14 23  1  0
 22 23  2  0
 13 24  1  0
 10 25  1  0
 24 25  1  0
  7 26  1  0
  4 27  1  0
 26 27  1  0
M  END
