piperidine-amides-8348-covalent
     RDKit          3D

 24 26  0  0  0  0  0  0  0  0999 V2000
    7.0710   -3.3390   19.3100 C   0  0  0  0  0  0  0  0  0  0  0  0
    6.4280   -4.1930   20.3020 C   0  0  0  0  0  0  0  0  0  0  0  0
    5.3830   -4.7890   19.9720 O   0  0  0  0  0  0  0  0  0  0  0  0
    7.0250   -4.3800   21.5750 N   0  0  0  0  0  0  0  0  0  0  0  0
    7.6800   -3.2590   22.1840 C   0  0  0  0  0  0  0  0  0  0  0  0
    6.7620   -2.7030   23.2210 C   0  0  0  0  0  0  0  0  0  0  0  0
    6.5740   -3.7940   24.2460 C   0  0  0  0  0  0  0  0  0  0  0  0
    5.7750   -3.2540   25.3870 C   0  0  0  0  0  0  0  0  0  0  0  0
    4.5890   -3.0240   25.1680 O   0  0  0  0  0  0  0  0  0  0  0  0
    6.4210   -3.0620   26.5970 N   0  0  0  0  0  0  0  0  0  0  0  0
    6.4320   -1.8070   27.2690 C   0  0  0  0  0  0  0  0  0  0  0  0
    6.9930   -1.5090   28.5290 C   0  0  0  0  0  0  0  0  0  0  0  0
    6.9870   -0.3010   29.1600 C   0  0  0  0  0  0  0  0  0  0  0  0
    6.4030    0.7920   28.5910 C   0  0  0  0  0  0  0  0  0  0  0  0
    6.5550    1.9580   29.5230 C   0  0  0  0  0  0  0  0  0  0  0  0
    6.7350    1.7230   31.0410 C   0  0  0  0  0  0  0  0  0  0  0  0
    6.8800    2.9190   31.9120 C   0  0  0  0  0  0  0  0  0  0  0  0
    6.8690    4.2800   31.4700 N   0  0  0  0  0  0  0  0  0  0  0  0
    6.6980    4.4180   30.0480 C   0  0  0  0  0  0  0  0  0  0  0  0
    6.5330    3.2900   29.0010 C   0  0  0  0  0  0  0  0  0  0  0  0
    5.8300    0.6150   27.3580 N   0  0  0  0  0  0  0  0  0  0  0  0
    5.7970   -0.5490   26.6740 C   0  0  0  0  0  0  0  0  0  0  0  0
    5.8080   -4.9170   23.6030 C   0  0  0  0  0  0  0  0  0  0  0  0
    6.4790   -5.4460   22.3650 C   0  0  0  0  0  0  0  0  0  0  0  0
  1  2  1  0
  2  3  2  0
  2  4  1  0
  4  5  1  0
  5  6  1  0
  6  7  1  0
  7  8  1  0
  8  9  2  0
  8 10  1  0
 10 11  1  0
 11 12  2  0
 12 13  1  0
 13 14  2  0
 14 15  1  0
 15 16  2  0
 16 17  1  0
 17 18  2  0
 18 19  1  0
 15 20  1  0
 19 20  2  0
 14 21  1  0
 11 22  1  0
 21 22  2  0
  7 23  1  0
  4 24  1  0
 23 24  1  0
M  END
