piperidine-amides-15231-covalent
     RDKit          3D

 18 19  0  0  0  0  0  0  0  0999 V2000
    7.1310   -3.2610   19.1730 C   0  0  0  0  0  0  0  0  0  0  0  0
    6.3790   -4.0160   20.1850 C   0  0  0  0  0  0  0  0  0  0  0  0
    5.2980   -4.5680   19.8910 O   0  0  0  0  0  0  0  0  0  0  0  0
    6.9070   -4.1720   21.4670 N   0  0  0  0  0  0  0  0  0  0  0  0
    6.5050   -5.3080   22.2640 C   0  0  0  0  0  0  0  0  0  0  0  0
    5.6170   -4.7300   23.3660 C   0  0  0  0  0  0  0  0  0  0  0  0
    6.5260   -3.8700   24.2170 C   0  0  0  0  0  0  0  0  0  0  0  0
    5.7570   -3.3450   25.3550 C   0  0  0  0  0  0  0  0  0  0  0  0
    5.5280   -2.1240   25.4330 O   0  0  0  0  0  0  0  0  0  0  0  0
    5.2660   -4.2540   26.3100 N   0  0  0  0  0  0  0  0  0  0  0  0
    5.8180   -4.3740   27.6240 C   0  0  0  0  0  0  0  0  0  0  0  0
    5.8430   -5.8680   27.8990 C   0  0  2  0  0  0  0  0  0  0  0  0
    4.5950   -6.5050   27.9580 C   0  0  0  0  0  0  0  0  0  0  0  0
    4.2970   -7.1700   29.1160 C   0  0  0  0  0  0  0  0  0  0  0  0
    5.6870   -7.1450   30.1470 S   0  0  0  0  0  0  0  0  0  0  0  0
    6.6640   -6.1600   29.0830 C   0  0  0  0  0  0  0  0  0  0  0  0
    7.1690   -2.7560   23.4770 C   0  0  0  0  0  0  0  0  0  0  0  0
    7.6500   -3.1150   22.1020 C   0  0  0  0  0  0  0  0  0  0  0  0
  1  2  1  0
  2  3  2  0
  2  4  1  0
  4  5  1  0
  5  6  1  0
  6  7  1  0
  7  8  1  0
  8  9  2  0
  8 10  1  0
 10 11  1  0
 12 11  1  1
 12 13  1  0
 13 14  1  0
 14 15  1  0
 12 16  1  0
 15 16  1  0
  7 17  1  0
  4 18  1  0
 17 18  1  0
M  END
