piperidine-amides-10131-covalent
     RDKit          3D

 25 27  0  0  0  0  0  0  0  0999 V2000
    7.0350   -3.3520   19.3480 C   0  0  0  0  0  0  0  0  0  0  0  0
    6.3910   -4.1990   20.3600 C   0  0  0  0  0  0  0  0  0  0  0  0
    5.3760   -4.8420   19.9790 O   0  0  0  0  0  0  0  0  0  0  0  0
    6.9140   -4.3070   21.6550 N   0  0  0  0  0  0  0  0  0  0  0  0
    6.6790   -5.4770   22.4720 C   0  0  0  0  0  0  0  0  0  0  0  0
    6.0500   -5.0590   23.7820 C   0  0  0  0  0  0  0  0  0  0  0  0
    6.0350   -3.5610   23.9740 C   0  0  0  0  0  0  0  0  0  0  0  0
    5.6530   -3.2130   25.3630 C   0  0  0  0  0  0  0  0  0  0  0  0
    4.4380   -3.2140   25.6430 O   0  0  0  0  0  0  0  0  0  0  0  0
    6.5730   -2.8790   26.3730 N   0  0  0  0  0  0  0  0  0  0  0  0
    6.4700   -1.6490   27.1180 C   0  0  0  0  0  0  0  0  0  0  0  0
    7.0850   -1.5260   28.5030 C   0  0  0  0  0  0  0  0  0  0  0  0
    7.0160   -0.3960   29.2500 C   0  0  0  0  0  0  0  0  0  0  0  0
    6.3680    0.7190   28.7770 C   0  0  0  0  0  0  0  0  0  0  0  0
    6.2850    1.8780   29.5370 C   0  0  0  0  0  0  0  0  0  0  0  0
    5.8130    3.1030   29.1680 N   0  0  0  0  0  0  0  0  0  0  0  0
    5.9460    3.8380   30.2360 C   0  0  0  0  0  0  0  0  0  0  0  0
    5.8340    5.0160   30.9420 C   0  0  0  0  0  0  0  0  0  0  0  0
    6.5250    3.2320   31.4820 C   0  0  0  0  0  0  0  0  0  0  0  0
    6.8140    3.7910   32.8740 C   0  0  0  0  0  0  0  0  0  0  0  0
    6.7280    1.9170   30.9400 N   0  0  0  0  0  0  0  0  0  0  0  0
    5.7830    0.6870   27.5190 C   0  0  0  0  0  0  0  0  0  0  0  0
    5.7460   -0.4750   26.5180 C   0  0  0  0  0  0  0  0  0  0  0  0
    7.3180   -2.9220   23.6040 C   0  0  0  0  0  0  0  0  0  0  0  0
    7.7220   -3.2370   22.1890 C   0  0  0  0  0  0  0  0  0  0  0  0
  1  2  1  0
  2  3  2  0
  2  4  1  0
  4  5  1  0
  5  6  1  0
  6  7  1  0
  7  8  1  0
  8  9  2  0
  8 10  1  0
 10 11  1  0
 11 12  2  0
 12 13  1  0
 13 14  2  0
 14 15  1  0
 15 16  2  0
 16 17  1  0
 17 18  1  0
 17 19  2  0
 19 20  1  0
 15 21  1  0
 19 21  1  0
 14 22  1  0
 11 23  1  0
 22 23  2  0
  7 24  1  0
  4 25  1  0
 24 25  1  0
M  END
