piperidine-amides-3036-covalent
     RDKit          3D

 23 25  0  0  0  0  0  0  0  0999 V2000
    7.0520   -3.2920   19.2170 C   0  0  0  0  0  0  0  0  0  0  0  0
    6.2820   -4.0480   20.2060 C   0  0  0  0  0  0  0  0  0  0  0  0
    5.2380   -4.6010   19.8810 O   0  0  0  0  0  0  0  0  0  0  0  0
    6.7500   -4.1890   21.5470 N   0  0  0  0  0  0  0  0  0  0  0  0
    7.5950   -3.1870   22.1120 C   0  0  0  0  0  0  0  0  0  0  0  0
    7.3730   -3.2100   23.5760 C   0  0  0  0  0  0  0  0  0  0  0  0
    5.9710   -3.6910   23.8160 C   0  0  0  0  0  0  0  0  0  0  0  0
    5.6210   -3.4840   25.2410 C   0  0  0  0  0  0  0  0  0  0  0  0
    4.4940   -3.0870   25.5930 O   0  0  0  0  0  0  0  0  0  0  0  0
    6.6000   -3.7490   26.2260 N   0  0  0  0  0  0  0  0  0  0  0  0
    6.1470   -4.1390   27.5380 C   0  0  1  0  0  0  0  0  0  0  0  0
    7.1620   -5.0610   28.1820 C   0  0  0  0  0  0  0  0  0  0  0  0
    5.8710   -2.9100   28.3480 C   0  0  0  0  0  0  0  0  0  0  0  0
    6.9130   -2.2210   28.9980 C   0  0  0  0  0  0  0  0  0  0  0  0
    6.4400   -0.8090   29.9030 S   0  0  0  0  0  0  0  0  0  0  0  0
    4.7600   -1.1210   29.4100 C   0  0  0  0  0  0  0  0  0  0  0  0
    3.6230   -0.3200   29.7790 C   0  0  0  0  0  0  0  0  0  0  0  0
    2.3660   -0.6160   29.3660 C   0  0  0  0  0  0  0  0  0  0  0  0
    2.1610   -1.7150   28.5670 C   0  0  0  0  0  0  0  0  0  0  0  0
    3.2360   -2.5360   28.1740 C   0  0  0  0  0  0  0  0  0  0  0  0
    4.6400   -2.2650   28.5940 C   0  0  0  0  0  0  0  0  0  0  0  0
    5.7440   -5.1330   23.3840 C   0  0  0  0  0  0  0  0  0  0  0  0
    6.5550   -5.4130   22.2770 C   0  0  0  0  0  0  0  0  0  0  0  0
  1  2  1  0
  2  3  2  0
  2  4  1  0
  4  5  1  0
  5  6  1  0
  6  7  1  0
  7  8  1  0
  8  9  2  0
  8 10  1  0
 10 11  1  0
 11 12  1  1
 11 13  1  0
 13 14  2  0
 14 15  1  0
 15 16  1  0
 16 17  1  0
 17 18  2  0
 18 19  1  0
 19 20  2  0
 13 21  1  0
 16 21  2  0
 20 21  1  0
  7 22  1  0
  4 23  1  0
 22 23  1  0
M  END
