piperidine-amides-121-covalent
     RDKit          3D

 27 30  0  0  0  0  0  0  0  0999 V2000
    7.0600   -3.3740   19.2930 C   0  0  0  0  0  0  0  0  0  0  0  0
    6.3810   -4.1310   20.3210 C   0  0  0  0  0  0  0  0  0  0  0  0
    5.3420   -4.7680   19.9680 O   0  0  0  0  0  0  0  0  0  0  0  0
    6.8410   -4.2450   21.6510 N   0  0  0  0  0  0  0  0  0  0  0  0
    7.6440   -3.1370   22.2290 C   0  0  0  0  0  0  0  0  0  0  0  0
    6.6500   -2.6200   23.3380 C   0  0  0  0  0  0  0  0  0  0  0  0
    6.4890   -3.7990   24.2600 C   0  0  0  0  0  0  0  0  0  0  0  0
    5.6790   -3.4610   25.5940 C   0  0  0  0  0  0  0  0  0  0  0  0
    4.8350   -4.3150   25.7970 O   0  0  0  0  0  0  0  0  0  0  0  0
    6.0940   -2.3770   26.1140 N   0  0  0  0  0  0  0  0  0  0  0  0
    6.4610   -1.1660   26.6100 C   0  0  1  0  0  0  0  0  0  0  0  0
    5.9320    0.1080   26.4960 C   0  0  0  0  0  0  0  0  0  0  0  0
    5.1760    0.5460   27.5900 C   0  0  0  0  0  0  0  0  0  0  0  0
    5.9500    0.5750   28.8250 C   0  0  1  0  0  0  0  0  0  0  0  0
    4.6660    0.8730   29.6150 C   0  0  0  0  0  0  0  0  0  0  0  0
    4.2880    2.1870   30.0180 N   0  0  0  0  0  0  0  0  0  0  0  0
    3.0670    1.9850   30.7030 C   0  0  0  0  0  0  0  0  0  0  0  0
    2.4430    3.1780   31.2320 C   0  0  0  0  0  0  0  0  0  0  0  0
    1.2070    2.4800   31.8570 C   0  0  0  0  0  0  0  0  0  0  0  0
    0.8380    0.9810   31.8650 C   0  0  0  0  0  0  0  0  0  0  0  0
    1.6820    0.1560   31.2600 C   0  0  0  0  0  0  0  0  0  0  0  0
    2.8050    0.5830   30.6630 C   0  0  0  0  0  0  0  0  0  0  0  0
    3.8080   -0.0610   29.9880 N   0  0  0  0  0  0  0  0  0  0  0  0
    6.4910   -0.7790   29.0770 C   0  0  0  0  0  0  0  0  0  0  0  0
    7.0660   -1.4200   28.0040 C   0  0  0  0  0  0  0  0  0  0  0  0
    5.9730   -5.0760   23.6840 C   0  0  0  0  0  0  0  0  0  0  0  0
    6.6210   -5.4600   22.3920 C   0  0  0  0  0  0  0  0  0  0  0  0
  1  2  1  0
  2  3  2  0
  2  4  1  0
  4  5  1  0
  5  6  1  0
  6  7  1  0
  7  8  1  0
  8  9  2  0
  8 10  1  0
 11 10  1  1
 11 12  1  0
 12 13  1  0
 13 14  1  0
 14 15  1  1
 15 16  2  0
 16 17  1  0
 17 18  2  0
 18 19  1  0
 19 20  2  0
 20 21  1  0
 17 22  1  0
 21 22  2  0
 15 23  1  0
 22 23  1  0
 14 24  1  0
 11 25  1  0
 24 25  1  0
  7 26  1  0
  4 27  1  0
 26 27  1  0
M  END
