piperidine-amides-7236-covalent
     RDKit          3D

 20 21  0  0  0  0  0  0  0  0999 V2000
    7.1060   -3.2690   19.1980 C   0  0  0  0  0  0  0  0  0  0  0  0
    6.3550   -4.0120   20.2150 C   0  0  0  0  0  0  0  0  0  0  0  0
    5.2570   -4.5080   19.8630 O   0  0  0  0  0  0  0  0  0  0  0  0
    6.8870   -4.1930   21.4890 N   0  0  0  0  0  0  0  0  0  0  0  0
    7.6950   -3.1810   22.1250 C   0  0  0  0  0  0  0  0  0  0  0  0
    6.9560   -2.6860   23.3280 C   0  0  0  0  0  0  0  0  0  0  0  0
    6.5600   -3.8230   24.2250 C   0  0  0  0  0  0  0  0  0  0  0  0
    5.7990   -3.3280   25.3900 C   0  0  0  0  0  0  0  0  0  0  0  0
    4.5490   -3.3570   25.3390 O   0  0  0  0  0  0  0  0  0  0  0  0
    6.4140   -2.8220   26.5540 N   0  0  0  0  0  0  0  0  0  0  0  0
    5.6290   -2.2930   27.6390 C   0  0  1  0  0  0  0  0  0  0  0  0
    6.4800   -1.6080   28.6000 C   0  0  0  0  0  0  0  0  0  0  0  0
    5.6550   -0.5790   28.5110 C   0  0  2  0  0  0  0  0  0  0  0  0
    5.0790    0.0330   29.6080 C   0  0  0  0  0  0  0  0  0  0  0  0
    5.5130   -0.4940   30.7700 N   0  0  0  0  0  0  0  0  0  0  0  0
    4.6800   -0.8130   31.7550 C   0  0  0  0  0  0  0  0  0  0  0  0
    6.8000   -0.1320   30.9520 C   0  0  0  0  0  0  0  0  0  0  0  0
    4.7280   -1.1950   27.5890 C   0  0  0  0  0  0  0  0  0  0  0  0
    5.7030   -4.8420   23.4680 C   0  0  0  0  0  0  0  0  0  0  0  0
    6.4760   -5.3400   22.2540 C   0  0  0  0  0  0  0  0  0  0  0  0
  1  2  1  0
  2  3  2  0
  2  4  1  0
  4  5  1  0
  5  6  1  0
  6  7  1  0
  7  8  1  0
  8  9  2  0
  8 10  1  0
 11 10  1  6
 11 12  1  0
 12 13  1  0
 13 14  1  1
 14 15  1  0
 15 16  1  0
 15 17  1  0
 11 18  1  0
 13 18  1  0
  7 19  1  0
  4 20  1  0
 19 20  1  0
M  END
