piperidine-amides-29431-covalent
     RDKit          3D

 22 24  0  0  0  0  0  0  0  0999 V2000
    7.0770   -3.3780   19.3610 C   0  0  0  0  0  0  0  0  0  0  0  0
    6.3780   -4.2080   20.3350 C   0  0  0  0  0  0  0  0  0  0  0  0
    5.3480   -4.7980   19.9680 O   0  0  0  0  0  0  0  0  0  0  0  0
    6.9060   -4.3730   21.6400 N   0  0  0  0  0  0  0  0  0  0  0  0
    6.2840   -5.3490   22.4860 C   0  0  0  0  0  0  0  0  0  0  0  0
    5.3400   -4.6440   23.4320 C   0  0  0  0  0  0  0  0  0  0  0  0
    6.1620   -3.7400   24.3420 C   0  0  0  0  0  0  0  0  0  0  0  0
    5.3360   -3.0890   25.4450 C   0  0  0  0  0  0  0  0  0  0  0  0
    4.1800   -2.7610   25.2070 O   0  0  0  0  0  0  0  0  0  0  0  0
    6.0320   -2.9600   26.6380 N   0  0  0  0  0  0  0  0  0  0  0  0
    5.4390   -2.7650   27.9020 C   0  0  0  0  0  0  0  0  0  0  0  0
    5.1400   -3.9390   28.5510 C   0  0  0  0  0  0  0  0  0  0  0  0
    6.1170   -4.8800   28.5450 C   0  0  0  0  0  0  0  0  0  0  0  0
    7.1440   -4.7880   27.5320 N   0  0  0  0  0  0  0  0  0  0  0  0
    8.2540   -5.6190   27.3580 N   0  0  0  0  0  0  0  0  0  0  0  0
    8.9100   -5.1620   26.3040 C   0  0  0  0  0  0  0  0  0  0  0  0
    9.9630   -6.0730   26.2200 C   0  0  0  0  0  0  0  0  0  0  0  0
    7.8810   -4.7830   26.8720 C   0  0  0  0  0  0  0  0  0  0  0  0
    7.2460   -5.7590   28.3890 Br  0  0  0  0  0  0  0  0  0  0  0  0
    7.1670   -3.7310   26.4560 C   0  0  0  0  0  0  0  0  0  0  0  0
    6.9630   -2.7620   23.5440 C   0  0  0  0  0  0  0  0  0  0  0  0
    7.5830   -3.2470   22.2230 C   0  0  0  0  0  0  0  0  0  0  0  0
  1  2  1  0
  2  3  2  0
  2  4  1  0
  4  5  1  0
  5  6  1  0
  6  7  1  0
  7  8  1  0
  8  9  2  0
  8 10  1  0
 10 11  1  0
 11 12  1  0
 12 13  1  0
 13 14  1  0
 14 15  1  0
 15 16  2  0
 16 17  1  0
 16 18  1  0
 18 19  1  0
 10 20  1  0
 14 20  1  0
 18 20  2  0
  7 21  1  0
  4 22  1  0
 21 22  1  0
M  END
