piperidine-amides-8119-covalent
     RDKit          3D

 26 27  0  0  0  0  0  0  0  0999 V2000
    7.1850   -3.1750   19.1040 C   0  0  0  0  0  0  0  0  0  0  0  0
    6.4130   -3.8260   20.1540 C   0  0  0  0  0  0  0  0  0  0  0  0
    5.3350   -4.3690   19.8390 O   0  0  0  0  0  0  0  0  0  0  0  0
    6.9050   -3.8890   21.4860 N   0  0  0  0  0  0  0  0  0  0  0  0
    7.7010   -2.8260   22.0490 C   0  0  0  0  0  0  0  0  0  0  0  0
    7.5540   -2.8360   23.5550 C   0  0  0  0  0  0  0  0  0  0  0  0
    6.0670   -2.9520   23.8190 C   0  0  0  0  0  0  0  0  0  0  0  0
    5.6540   -2.7020   25.2440 C   0  0  0  0  0  0  0  0  0  0  0  0
    4.9660   -1.7070   25.4190 O   0  0  0  0  0  0  0  0  0  0  0  0
    6.0030   -3.5720   26.2720 N   0  0  0  0  0  0  0  0  0  0  0  0
    4.9600   -4.2330   27.0050 C   0  0  0  0  0  0  0  0  0  0  0  0
    4.2620   -5.1910   26.2260 C   0  0  0  0  0  0  0  0  0  0  0  0
    5.0790   -5.7850   25.3440 C   0  0  0  0  0  0  0  0  0  0  0  0
    4.8840   -6.0300   23.9640 C   0  0  0  0  0  0  0  0  0  0  0  0
    6.0700   -6.6620   23.2580 C   0  0  0  0  0  0  0  0  0  0  0  0
    7.3000   -6.9530   24.1130 C   0  0  0  0  0  0  0  0  0  0  0  0
    8.3620   -7.4240   23.7090 O   0  0  0  0  0  0  0  0  0  0  0  0
    8.2850   -8.0840   22.6360 C   0  0  0  0  0  0  0  0  0  0  0  0
    7.2900   -9.0880   22.9120 C   0  0  0  0  0  0  0  0  0  0  0  0
    6.3580   -8.7460   23.6470 O   0  0  0  0  0  0  0  0  0  0  0  0
    7.2970  -10.2780   22.1820 O   0  0  0  0  0  0  0  0  0  0  0  0
    7.3090  -11.7940   22.1650 C   0  0  0  0  0  0  0  0  0  0  0  0
    7.2250   -6.6830   25.3510 C   0  0  0  0  0  0  0  0  0  0  0  0
    6.1910   -6.1230   25.9600 C   0  0  0  0  0  0  0  0  0  0  0  0
    5.5270   -4.2590   23.3880 C   0  0  0  0  0  0  0  0  0  0  0  0
    6.4070   -4.8890   22.3500 C   0  0  0  0  0  0  0  0  0  0  0  0
  1  2  1  0
  2  3  2  0
  2  4  1  0
  4  5  1  0
  5  6  1  0
  6  7  1  0
  7  8  1  0
  8  9  2  0
  8 10  1  0
 10 11  1  0
 11 12  1  0
 12 13  1  0
 13 14  2  0
 14 15  1  0
 15 16  2  0
 16 17  1  0
 17 18  1  0
 18 19  1  0
 19 20  2  0
 19 21  1  0
 21 22  1  0
 16 23  1  0
 13 24  1  0
 23 24  2  0
  7 25  1  0
  4 26  1  0
 25 26  1  0
M  END
