piperidine-amides-9993-covalent
     RDKit          3D

 26 28  0  0  0  0  0  0  0  0999 V2000
    7.0640   -3.3280   19.2910 C   0  0  0  0  0  0  0  0  0  0  0  0
    6.3270   -4.0960   20.2970 C   0  0  0  0  0  0  0  0  0  0  0  0
    5.2750   -4.6640   19.9130 O   0  0  0  0  0  0  0  0  0  0  0  0
    6.8160   -4.2170   21.5940 N   0  0  0  0  0  0  0  0  0  0  0  0
    7.6330   -3.1730   22.1810 C   0  0  0  0  0  0  0  0  0  0  0  0
    6.9350   -2.6810   23.4090 C   0  0  0  0  0  0  0  0  0  0  0  0
    6.5750   -3.8420   24.2780 C   0  0  0  0  0  0  0  0  0  0  0  0
    5.7810   -3.4090   25.4590 C   0  0  0  0  0  0  0  0  0  0  0  0
    4.5370   -3.2720   25.3620 O   0  0  0  0  0  0  0  0  0  0  0  0
    6.3490   -3.1460   26.7200 N   0  0  0  0  0  0  0  0  0  0  0  0
    6.3770   -1.8090   27.2720 C   0  0  0  0  0  0  0  0  0  0  0  0
    5.6850   -0.6390   26.6020 C   0  0  0  0  0  0  0  0  0  0  0  0
    5.7390    0.6010   27.1810 C   0  0  0  0  0  0  0  0  0  0  0  0
    6.4280    0.7570   28.3660 C   0  0  0  0  0  0  0  0  0  0  0  0
    7.1060   -0.2370   29.0730 C   0  0  0  0  0  0  0  0  0  0  0  0
    7.7600    0.0960   30.2400 O   0  0  0  0  0  0  0  0  0  0  0  0
    7.0910    0.2930   31.4700 C   0  0  0  0  0  0  0  0  0  0  0  0
    5.7180    0.1950   31.4820 C   0  0  0  0  0  0  0  0  0  0  0  0
    5.3560    0.5350   32.7300 N   0  0  0  0  0  0  0  0  0  0  0  0
    4.8300    1.7220   32.9420 C   0  0  0  0  0  0  0  0  0  0  0  0
    4.5170    1.8980   34.3000 N   0  0  0  0  0  0  0  0  0  0  0  0
    4.8990    0.7300   34.8670 C   0  0  0  0  0  0  0  0  0  0  0  0
    5.4210   -0.1230   33.9010 N   0  0  0  0  0  0  0  0  0  0  0  0
    7.0950   -1.5180   28.5540 C   0  0  0  0  0  0  0  0  0  0  0  0
    5.8140   -4.8950   23.5170 C   0  0  0  0  0  0  0  0  0  0  0  0
    6.5120   -5.3780   22.4320 C   0  0  0  0  0  0  0  0  0  0  0  0
  1  2  1  0
  2  3  2  0
  2  4  1  0
  4  5  1  0
  5  6  1  0
  6  7  1  0
  7  8  1  0
  8  9  2  0
  8 10  1  0
 10 11  1  0
 11 12  2  0
 12 13  1  0
 13 14  2  0
 14 15  1  0
 15 16  1  0
 16 17  1  0
 17 18  1  0
 18 19  1  0
 19 20  1  0
 20 21  2  0
 21 22  1  0
 19 23  1  0
 22 23  2  0
 11 24  1  0
 15 24  2  0
  7 25  1  0
  4 26  1  0
 25 26  1  0
M  END
