piperidine-amides-8594-covalent
     RDKit          3D

 24 24  0  0  0  0  0  0  0  0999 V2000
    7.0650   -3.2900   19.2610 C   0  0  0  0  0  0  0  0  0  0  0  0
    6.3610   -4.0870   20.2660 C   0  0  0  0  0  0  0  0  0  0  0  0
    5.3170   -4.6710   19.9250 O   0  0  0  0  0  0  0  0  0  0  0  0
    6.8800   -4.2280   21.5800 N   0  0  0  0  0  0  0  0  0  0  0  0
    7.6850   -3.1560   22.1190 C   0  0  0  0  0  0  0  0  0  0  0  0
    7.4430   -3.0020   23.5910 C   0  0  0  0  0  0  0  0  0  0  0  0
    6.0650   -3.5670   23.8270 C   0  0  0  0  0  0  0  0  0  0  0  0
    5.5340   -3.1880   25.1690 C   0  0  0  0  0  0  0  0  0  0  0  0
    4.3740   -2.7900   25.1980 O   0  0  0  0  0  0  0  0  0  0  0  0
    6.3490   -3.3140   26.2770 N   0  0  0  0  0  0  0  0  0  0  0  0
    5.9590   -4.1450   27.3620 C   0  0  0  0  0  0  0  0  0  0  0  0
    6.3740   -3.7050   28.6180 C   0  0  0  0  0  0  0  0  0  0  0  0
    6.4060   -2.3550   28.8920 C   0  0  0  0  0  0  0  0  0  0  0  0
    5.5230   -2.0550   29.9150 O   0  0  0  0  0  0  0  0  0  0  0  0
    4.7060   -1.0530   30.2600 C   0  0  0  0  0  0  0  0  0  0  0  0
    5.3170    0.3110   30.3520 C   0  0  0  0  0  0  0  0  0  0  0  0
    4.6550    1.3680   29.4370 C   0  0  0  0  0  0  0  0  0  0  0  0
    5.1920    2.7320   29.6690 C   0  0  0  0  0  0  0  0  0  0  0  0
    6.5890    2.7910   29.1070 C   0  0  0  0  0  0  0  0  0  0  0  0
    6.8710    4.1930   28.5190 C   0  0  0  0  0  0  0  0  0  0  0  0
    8.0610    4.4300   27.8600 C   0  0  0  0  0  0  0  0  0  0  0  0
    8.2450    4.0030   26.5630 C   0  0  0  0  0  0  0  0  0  0  0  0
    6.0420   -5.0460   23.6640 C   0  0  0  0  0  0  0  0  0  0  0  0
    6.6320   -5.4290   22.3410 C   0  0  0  0  0  0  0  0  0  0  0  0
  1  2  1  0
  2  3  2  0
  2  4  1  0
  4  5  1  0
  5  6  1  0
  6  7  1  0
  7  8  1  0
  8  9  2  0
  8 10  1  0
 10 11  1  0
 11 12  1  0
 12 13  1  0
 13 14  1  0
 14 15  1  0
 15 16  1  0
 16 17  1  0
 17 18  1  0
 18 19  1  0
 19 20  1  0
 20 21  1  0
 21 22  1  0
  7 23  1  0
  4 24  1  0
 23 24  1  0
M  END
