piperidine-amides-25800-covalent
     RDKit          3D

 25 27  0  0  0  0  0  0  0  0999 V2000
    7.0200   -3.3360   19.3900 C   0  0  0  0  0  0  0  0  0  0  0  0
    6.3750   -4.2160   20.4020 C   0  0  0  0  0  0  0  0  0  0  0  0
    5.4270   -4.8940   20.0010 O   0  0  0  0  0  0  0  0  0  0  0  0
    6.8650   -4.2800   21.7250 N   0  0  0  0  0  0  0  0  0  0  0  0
    6.6850   -5.4650   22.5340 C   0  0  0  0  0  0  0  0  0  0  0  0
    6.0710   -5.0750   23.8530 C   0  0  0  0  0  0  0  0  0  0  0  0
    6.0600   -3.5520   23.9250 C   0  0  0  0  0  0  0  0  0  0  0  0
    5.5350   -3.0530   25.2270 C   0  0  0  0  0  0  0  0  0  0  0  0
    4.4390   -2.4800   25.2050 O   0  0  0  0  0  0  0  0  0  0  0  0
    6.1730   -3.1950   26.4810 N   0  0  0  0  0  0  0  0  0  0  0  0
    6.3610   -1.9620   27.2450 C   0  0  0  0  0  0  0  0  0  0  0  0
    5.8230   -0.6800   26.6230 C   0  0  0  0  0  0  0  0  0  0  0  0
    5.9110    0.5670   27.2260 C   0  0  0  0  0  0  0  0  0  0  0  0
    6.5160    0.6640   28.4510 C   0  0  0  0  0  0  0  0  0  0  0  0
    6.6410    1.8700   29.1070 O   0  0  0  0  0  0  0  0  0  0  0  0
    7.0180   -0.4490   29.0540 C   0  0  0  0  0  0  0  0  0  0  0  0
    6.9580   -1.8190   28.4650 C   0  0  0  0  0  0  0  0  0  0  0  0
    5.7490   -4.3320   27.2450 C   0  0  0  0  0  0  0  0  0  0  0  0
    6.1960   -4.5070   28.6790 C   0  0  0  0  0  0  0  0  0  0  0  0
    6.2250   -5.9950   28.8410 C   0  0  0  0  0  0  0  0  0  0  0  0
    4.9650   -6.6640   28.4160 C   0  0  0  0  0  0  0  0  0  0  0  0
    3.9790   -5.8820   27.5740 C   0  0  0  0  0  0  0  0  0  0  0  0
    4.3840   -4.5170   27.1310 C   0  0  0  0  0  0  0  0  0  0  0  0
    7.4410   -3.0090   23.6180 C   0  0  0  0  0  0  0  0  0  0  0  0
    7.7100   -3.2080   22.2730 C   0  0  0  0  0  0  0  0  0  0  0  0
  1  2  1  0
  2  3  2  0
  2  4  1  0
  4  5  1  0
  5  6  1  0
  6  7  1  0
  7  8  1  0
  8  9  2  0
  8 10  1  0
 10 11  1  0
 11 12  2  0
 12 13  1  0
 13 14  2  0
 14 15  1  0
 14 16  1  0
 11 17  1  0
 16 17  2  0
 10 18  1  0
 18 19  1  0
 19 20  1  0
 20 21  1  0
 21 22  1  0
 18 23  1  0
 22 23  1  0
  7 24  1  0
  4 25  1  0
 24 25  1  0
M  END
