piperidine-amides-33132-covalent
     RDKit          3D

 25 27  0  0  0  0  0  0  0  0999 V2000
    7.0580   -3.3700   19.3480 C   0  0  0  0  0  0  0  0  0  0  0  0
    6.4300   -4.2310   20.3600 C   0  0  0  0  0  0  0  0  0  0  0  0
    5.3910   -4.8370   19.9920 O   0  0  0  0  0  0  0  0  0  0  0  0
    7.0000   -4.4260   21.6560 N   0  0  0  0  0  0  0  0  0  0  0  0
    6.6190   -5.5270   22.4490 C   0  0  0  0  0  0  0  0  0  0  0  0
    6.4190   -5.1040   23.8240 C   0  0  0  0  0  0  0  0  0  0  0  0
    5.9470   -3.7060   23.9350 C   0  0  0  0  0  0  0  0  0  0  0  0
    5.5200   -3.3040   25.3190 C   0  0  0  0  0  0  0  0  0  0  0  0
    4.3330   -2.9660   25.4770 O   0  0  0  0  0  0  0  0  0  0  0  0
    6.3650   -3.2890   26.4490 N   0  0  0  0  0  0  0  0  0  0  0  0
    6.6720   -4.4360   27.2320 C   0  0  0  0  0  0  0  0  0  0  0  0
    6.2200   -2.0650   27.2470 C   0  0  0  0  0  0  0  0  0  0  0  0
    6.9470   -1.7640   28.3450 N   0  0  0  0  0  0  0  0  0  0  0  0
    6.5340   -0.5890   28.8040 N   0  0  0  0  0  0  0  0  0  0  0  0
    5.5500   -0.1660   27.9920 C   0  0  0  0  0  0  0  0  0  0  0  0
    5.0010    1.0510   28.3440 C   0  0  0  0  0  0  0  0  0  0  0  0
    6.2280    1.9110   27.9760 C   0  0  0  0  0  0  0  0  0  0  0  0
    5.9590    3.3910   28.2530 C   0  0  0  0  0  0  0  0  0  0  0  0
    4.5640    3.7520   28.8260 C   0  0  0  0  0  0  0  0  0  0  0  0
    4.2490    5.6020   29.1650 Br  0  0  0  0  0  0  0  0  0  0  0  0
    3.4570    2.7980   29.1360 C   0  0  0  0  0  0  0  0  0  0  0  0
    3.7910    1.3810   28.8430 C   0  0  0  0  0  0  0  0  0  0  0  0
    5.3550   -1.0750   27.0260 N   0  0  0  0  0  0  0  0  0  0  0  0
    6.8950   -2.6440   23.3370 C   0  0  0  0  0  0  0  0  0  0  0  0
    7.7310   -3.3050   22.2870 C   0  0  0  0  0  0  0  0  0  0  0  0
  1  2  1  0
  2  3  2  0
  2  4  1  0
  4  5  1  0
  5  6  1  0
  6  7  1  0
  7  8  1  0
  8  9  2  0
  8 10  1  0
 10 11  1  0
 10 12  1  0
 12 13  2  0
 13 14  1  0
 14 15  2  0
 15 16  1  0
 16 17  2  0
 17 18  1  0
 18 19  2  0
 19 20  1  0
 19 21  1  0
 16 22  1  0
 21 22  2  0
 12 23  1  0
 15 23  1  0
  7 24  1  0
  4 25  1  0
 24 25  1  0
M  END
