piperidine-amides-13259-covalent
     RDKit          3D

 17 18  0  0  0  0  0  0  0  0999 V2000
    7.1520   -3.2670   19.1790 C   0  0  0  0  0  0  0  0  0  0  0  0
    6.3410   -3.9880   20.1840 C   0  0  0  0  0  0  0  0  0  0  0  0
    5.2370   -4.4280   19.8240 O   0  0  0  0  0  0  0  0  0  0  0  0
    6.8400   -4.2120   21.4700 N   0  0  0  0  0  0  0  0  0  0  0  0
    6.3590   -5.3240   22.2050 C   0  0  0  0  0  0  0  0  0  0  0  0
    5.9000   -4.9580   23.5470 C   0  0  0  0  0  0  0  0  0  0  0  0
    6.6600   -3.8550   24.1880 C   0  0  0  0  0  0  0  0  0  0  0  0
    5.9060   -3.3600   25.3620 C   0  0  0  0  0  0  0  0  0  0  0  0
    4.9230   -2.6130   25.1870 O   0  0  0  0  0  0  0  0  0  0  0  0
    6.3020   -3.7540   26.6440 N   0  0  0  0  0  0  0  0  0  0  0  0
    6.8730   -5.1030   26.8340 C   0  0  1  0  0  0  0  0  0  0  0  0
    8.3300   -5.0880   26.7330 C   0  0  0  0  0  0  0  0  0  0  0  0
    8.3210   -5.3350   28.1240 C   0  0  0  0  0  0  0  0  0  0  0  0
    6.9290   -5.3950   28.2820 C   0  0  2  0  0  0  0  0  0  0  0  0
    6.3100   -6.4220   28.6240 O   0  0  0  0  0  0  0  0  0  0  0  0
    7.0280   -2.7350   23.2660 C   0  0  0  0  0  0  0  0  0  0  0  0
    7.5630   -3.1510   22.0920 C   0  0  0  0  0  0  0  0  0  0  0  0
  1  2  1  0
  2  3  2  0
  2  4  1  0
  4  5  1  0
  5  6  1  0
  6  7  1  0
  7  8  1  0
  8  9  2  0
  8 10  1  0
 11 10  1  1
 11 12  1  0
 12 13  1  0
 11 14  1  0
 13 14  1  0
 14 15  1  6
  7 16  1  0
  4 17  1  0
 16 17  1  0
M  END
