piperidine-amides-5585-covalent
     RDKit          3D

 19 20  0  0  0  0  0  0  0  0999 V2000
    7.1040   -3.2790   19.2250 C   0  0  0  0  0  0  0  0  0  0  0  0
    6.3480   -4.0270   20.2330 C   0  0  0  0  0  0  0  0  0  0  0  0
    5.2950   -4.5910   19.9020 O   0  0  0  0  0  0  0  0  0  0  0  0
    6.8210   -4.1650   21.5480 N   0  0  0  0  0  0  0  0  0  0  0  0
    7.6800   -3.1890   22.1810 C   0  0  0  0  0  0  0  0  0  0  0  0
    6.9250   -2.7080   23.3910 C   0  0  0  0  0  0  0  0  0  0  0  0
    6.4230   -3.8380   24.2410 C   0  0  0  0  0  0  0  0  0  0  0  0
    5.5920   -3.3840   25.3940 C   0  0  0  0  0  0  0  0  0  0  0  0
    4.3840   -3.0680   25.2000 O   0  0  0  0  0  0  0  0  0  0  0  0
    6.0570   -3.2650   26.7330 N   0  0  0  0  0  0  0  0  0  0  0  0
    6.2210   -4.4620   27.6020 C   0  0  0  0  0  0  0  0  0  0  0  0
    5.0150   -4.7370   28.4060 C   0  0  0  0  0  0  0  0  0  0  0  0
    5.1440   -5.9810   29.1970 C   0  0  0  0  0  0  0  0  0  0  0  0
    3.8400   -6.4780   29.7610 C   0  0  0  0  0  0  0  0  0  0  0  0
    3.3830   -5.2260   30.9630 S   0  0  0  0  0  0  0  0  0  0  0  0
    3.5480   -3.6640   30.1510 C   0  0  0  0  0  0  0  0  0  0  0  0
    4.7490   -3.5490   29.2790 C   0  0  0  0  0  0  0  0  0  0  0  0
    5.6480   -4.8270   23.3880 C   0  0  0  0  0  0  0  0  0  0  0  0
    6.4090   -5.3080   22.3170 C   0  0  0  0  0  0  0  0  0  0  0  0
  1  2  1  0
  2  3  2  0
  2  4  1  0
  4  5  1  0
  5  6  1  0
  6  7  1  0
  7  8  1  0
  8  9  2  0
  8 10  1  0
 10 11  1  0
 11 12  1  0
 12 13  1  0
 13 14  1  0
 14 15  1  0
 15 16  1  0
 12 17  1  0
 16 17  1  0
  7 18  1  0
  4 19  1  0
 18 19  1  0
M  END
