piperidine-amides-33881-covalent
     RDKit          3D

 29 32  0  0  0  0  0  0  0  0999 V2000
    7.0900   -3.3440   19.2570 C   0  0  0  0  0  0  0  0  0  0  0  0
    6.4120   -4.1460   20.2880 C   0  0  0  0  0  0  0  0  0  0  0  0
    5.3470   -4.7180   19.9520 O   0  0  0  0  0  0  0  0  0  0  0  0
    6.9750   -4.3150   21.5820 N   0  0  0  0  0  0  0  0  0  0  0  0
    6.5750   -5.4360   22.3600 C   0  0  0  0  0  0  0  0  0  0  0  0
    6.2930   -5.1270   23.7640 C   0  0  0  0  0  0  0  0  0  0  0  0
    6.6960   -3.7790   24.2430 C   0  0  0  0  0  0  0  0  0  0  0  0
    5.7180   -3.2630   25.2550 C   0  0  0  0  0  0  0  0  0  0  0  0
    4.9430   -2.3450   24.9400 O   0  0  0  0  0  0  0  0  0  0  0  0
    5.6130   -3.7910   26.5510 N   0  0  0  0  0  0  0  0  0  0  0  0
    4.4720   -4.3380   27.1060 C   0  0  0  0  0  0  0  0  0  0  0  0
    4.2790   -4.2070   28.5380 C   0  0  0  0  0  0  0  0  0  0  0  0
    5.6360   -4.2960   29.2370 C   0  0  0  0  0  0  0  0  0  0  0  0
    5.6080   -5.3740   30.0610 C   0  0  0  0  0  0  0  0  0  0  0  0
    6.4880   -6.4490   30.0230 N   0  0  0  0  0  0  0  0  0  0  0  0
    6.0110   -7.2270   31.0920 C   0  0  0  0  0  0  0  0  0  0  0  0
    6.4700   -8.5460   31.5760 C   0  0  0  0  0  0  0  0  0  0  0  0
    7.0630   -9.2220   30.2400 C   0  0  0  0  0  0  0  0  0  0  0  0
    7.5470  -10.7880   30.2630 C   0  0  0  0  0  0  0  0  0  0  0  0
    7.3710  -11.5650   31.8450 C   0  0  0  0  0  0  0  0  0  0  0  0
    7.7590  -13.1770   32.4540 Cl  0  0  0  0  0  0  0  0  0  0  0  0
    6.7960  -10.6860   33.0900 C   0  0  0  0  0  0  0  0  0  0  0  0
    6.3830   -9.2200   32.8480 C   0  0  0  0  0  0  0  0  0  0  0  0
    4.8990   -6.5270   31.6360 N   0  0  0  0  0  0  0  0  0  0  0  0
    4.6270   -5.3980   31.0290 O   0  0  0  0  0  0  0  0  0  0  0  0
    6.6820   -4.2690   28.3950 C   0  0  0  0  0  0  0  0  0  0  0  0
    6.3720   -3.1890   27.5780 C   0  0  0  0  0  0  0  0  0  0  0  0
    6.8120   -2.7770   23.1530 C   0  0  0  0  0  0  0  0  0  0  0  0
    7.7160   -3.2580   22.2290 C   0  0  0  0  0  0  0  0  0  0  0  0
  1  2  1  0
  2  3  2  0
  2  4  1  0
  4  5  1  0
  5  6  1  0
  6  7  1  0
  7  8  1  0
  8  9  2  0
  8 10  1  0
 10 11  1  0
 11 12  1  0
 12 13  1  0
 13 14  1  0
 14 15  2  0
 15 16  1  0
 16 17  1  0
 17 18  2  0
 18 19  1  0
 19 20  2  0
 20 21  1  0
 20 22  1  0
 17 23  1  0
 22 23  2  0
 16 24  2  0
 14 25  1  0
 24 25  1  0
 13 26  1  0
 10 27  1  0
 26 27  1  0
  7 28  1  0
  4 29  1  0
 28 29  1  0
M  END
