piperidine-amides-11446-covalent
     RDKit          3D

 21 24  0  0  0  0  0  0  0  0999 V2000
    7.0550   -3.3320   19.3170 C   0  0  0  0  0  0  0  0  0  0  0  0
    6.3560   -4.1460   20.3100 C   0  0  0  0  0  0  0  0  0  0  0  0
    5.3470   -4.7810   19.9630 O   0  0  0  0  0  0  0  0  0  0  0  0
    6.8270   -4.2680   21.6290 N   0  0  0  0  0  0  0  0  0  0  0  0
    6.7360   -5.5270   22.3430 C   0  0  0  0  0  0  0  0  0  0  0  0
    6.1160   -5.2080   23.6750 C   0  0  0  0  0  0  0  0  0  0  0  0
    6.1190   -3.7350   23.9160 C   0  0  0  0  0  0  0  0  0  0  0  0
    5.7030   -3.3680   25.2820 C   0  0  0  0  0  0  0  0  0  0  0  0
    4.5490   -3.6860   25.6950 O   0  0  0  0  0  0  0  0  0  0  0  0
    6.5160   -2.6480   26.1740 N   0  0  0  0  0  0  0  0  0  0  0  0
    5.8570   -1.6050   26.9800 C   0  0  2  0  0  0  0  0  0  0  0  0
    5.8770   -0.3350   26.2780 C   0  0  0  0  0  0  0  0  0  0  0  0
    5.9160    0.0680   27.6340 C   0  0  2  0  0  0  0  0  0  0  0  0
    6.6380    1.0570   28.3910 C   0  0  1  0  0  0  0  0  0  0  0  0
    5.6480    1.5200   29.4290 C   0  0  0  0  0  0  0  0  0  0  0  0
    5.1840    0.1880   29.9580 C   0  0  0  0  0  0  0  0  0  0  0  0
    6.0930   -0.7910   29.6140 C   0  0  2  0  0  0  0  0  0  0  0  0
    7.2550   -0.1800   29.0960 C   0  0  0  0  0  0  0  0  0  0  0  0
    6.4800   -1.0580   28.1640 C   0  0  1  0  0  0  0  0  0  0  0  0
    7.4270   -3.0690   23.6220 C   0  0  0  0  0  0  0  0  0  0  0  0
    7.7270   -3.2510   22.1600 C   0  0  0  0  0  0  0  0  0  0  0  0
  1  2  1  0
  2  3  2  0
  2  4  1  0
  4  5  1  0
  5  6  1  0
  6  7  1  0
  7  8  1  0
  8  9  2  0
  8 10  1  0
 11 10  1  6
 11 12  1  0
 13 12  1  6
 13 14  1  0
 14 15  1  1
 15 16  1  0
 17 16  1  6
 14 18  1  0
 17 18  1  0
 19 11  1  6
 13 19  1  0
 17 19  1  0
  7 20  1  0
  4 21  1  0
 20 21  1  0
M  END
