piperidine-amides-3597-covalent
     RDKit          3D

 18 18  0  0  0  0  0  0  0  0999 V2000
    7.1920   -3.9170   19.6530 C   0  0  0  0  0  0  0  0  0  0  0  0
    5.9360   -3.7580   20.2720 C   0  0  0  0  0  0  0  0  0  0  0  0
    4.9690   -3.8530   19.4940 O   0  0  0  0  0  0  0  0  0  0  0  0
    5.8850   -3.6420   21.6570 N   0  0  0  0  0  0  0  0  0  0  0  0
    6.8860   -2.7840   22.1980 C   0  0  0  0  0  0  0  0  0  0  0  0
    7.1670   -2.9610   23.6190 C   0  0  0  0  0  0  0  0  0  0  0  0
    6.3230   -3.9330   24.3530 C   0  0  0  0  0  0  0  0  0  0  0  0
    5.8800   -3.3670   25.6590 C   0  0  0  0  0  0  0  0  0  0  0  0
    5.0860   -2.4030   25.6740 O   0  0  0  0  0  0  0  0  0  0  0  0
    6.3240   -3.9310   26.8590 N   0  0  0  0  0  0  0  0  0  0  0  0
    6.2480   -5.3030   27.1770 C   0  0  2  0  0  0  0  0  0  0  0  0
    4.9830   -5.9780   27.1220 C   0  0  0  0  0  0  0  0  0  0  0  0
    6.7400   -5.5910   28.5560 C   0  0  0  0  0  0  0  0  0  0  0  0
    5.8580   -6.0400   29.5130 C   0  0  0  0  0  0  0  0  0  0  0  0
    5.2580   -7.7060   29.1910 S   0  0  0  0  0  0  0  0  0  0  0  0
    3.4490   -7.6970   29.1650 C   0  0  0  0  0  0  0  0  0  0  0  0
    5.1290   -4.4680   23.6690 C   0  0  0  0  0  0  0  0  0  0  0  0
    5.6080   -4.8940   22.3050 C   0  0  0  0  0  0  0  0  0  0  0  0
  1  2  1  0
  2  3  2  0
  2  4  1  0
  4  5  1  0
  5  6  1  0
  6  7  1  0
  7  8  1  0
  8  9  2  0
  8 10  1  0
 10 11  1  0
 11 12  1  1
 11 13  1  0
 13 14  1  0
 14 15  1  0
 15 16  1  0
  7 17  1  0
  4 18  1  0
 17 18  1  0
M  END
