piperidine-amides-1182-covalent
     RDKit          3D

 23 25  0  0  0  0  0  0  0  0999 V2000
    7.1610   -3.3070   19.2520 C   0  0  0  0  0  0  0  0  0  0  0  0
    6.3720   -4.0800   20.2410 C   0  0  0  0  0  0  0  0  0  0  0  0
    5.2840   -4.5720   19.8990 O   0  0  0  0  0  0  0  0  0  0  0  0
    6.9300   -4.2800   21.5190 N   0  0  0  0  0  0  0  0  0  0  0  0
    7.6850   -3.2500   22.1730 C   0  0  0  0  0  0  0  0  0  0  0  0
    6.7640   -2.6900   23.2520 C   0  0  0  0  0  0  0  0  0  0  0  0
    6.4450   -3.8030   24.2040 C   0  0  0  0  0  0  0  0  0  0  0  0
    5.7820   -3.2720   25.4100 C   0  0  0  0  0  0  0  0  0  0  0  0
    4.5510   -3.1610   25.3430 O   0  0  0  0  0  0  0  0  0  0  0  0
    6.5150   -2.9270   26.5470 N   0  0  0  0  0  0  0  0  0  0  0  0
    6.1540   -3.1870   27.8960 C   0  0  0  0  0  0  0  0  0  0  0  0
    5.3320   -2.3530   28.6340 C   0  0  0  0  0  0  0  0  0  0  0  0
    5.8730   -1.4810   29.6130 C   0  0  0  0  0  0  0  0  0  0  0  0
    7.2480   -1.3220   29.6260 C   0  0  0  0  0  0  0  0  0  0  0  0
    7.9030   -0.4360   30.6140 C   0  0  0  0  0  0  0  0  0  0  0  0
    7.0950    0.3230   31.6400 C   0  0  0  0  0  0  0  0  0  0  0  0
    5.6120    0.0560   31.5060 C   0  0  0  0  0  0  0  0  0  0  0  0
    5.0760   -0.7930   30.5470 C   0  0  0  0  0  0  0  0  0  0  0  0
    3.3320   -0.9570   30.5670 Cl  0  0  0  0  0  0  0  0  0  0  0  0
    3.9740   -2.2260   28.2240 C   0  0  0  0  0  0  0  0  0  0  0  0
    4.2100   -3.1610   29.2650 C   0  0  0  0  0  0  0  0  0  0  0  0
    5.6690   -4.8360   23.4870 C   0  0  0  0  0  0  0  0  0  0  0  0
    6.5050   -5.3890   22.3210 C   0  0  0  0  0  0  0  0  0  0  0  0
  1  2  1  0
  2  3  2  0
  2  4  1  0
  4  5  1  0
  5  6  1  0
  6  7  1  0
  7  8  1  0
  8  9  2  0
  8 10  1  0
 10 11  1  0
 12 11  1  0
 12 13  1  0
 13 14  2  0
 14 15  1  0
 15 16  2  0
 16 17  1  0
 13 18  1  0
 17 18  2  0
 18 19  1  0
 12 20  1  0
 12 21  1  0
 20 21  1  0
  7 22  1  0
  4 23  1  0
 22 23  1  0
M  END
