piperidine-amides-32868-covalent
     RDKit          3D

 29 33  0  0  0  0  0  0  0  0999 V2000
    7.1360   -3.3450   19.3440 C   0  0  0  0  0  0  0  0  0  0  0  0
    6.3770   -4.1740   20.3110 C   0  0  0  0  0  0  0  0  0  0  0  0
    5.3180   -4.7070   19.9440 O   0  0  0  0  0  0  0  0  0  0  0  0
    6.9110   -4.3870   21.5960 N   0  0  0  0  0  0  0  0  0  0  0  0
    6.5290   -5.5230   22.3790 C   0  0  0  0  0  0  0  0  0  0  0  0
    5.6070   -4.9570   23.4580 C   0  0  0  0  0  0  0  0  0  0  0  0
    6.4240   -4.0540   24.3240 C   0  0  0  0  0  0  0  0  0  0  0  0
    5.6310   -3.5580   25.4830 C   0  0  0  0  0  0  0  0  0  0  0  0
    4.6530   -2.8740   25.1720 O   0  0  0  0  0  0  0  0  0  0  0  0
    5.9430   -3.8320   26.8330 N   0  0  0  0  0  0  0  0  0  0  0  0
    5.4380   -3.0780   27.9200 C   0  0  0  0  0  0  0  0  0  0  0  0
    5.4570   -3.5340   29.2250 C   0  0  0  0  0  0  0  0  0  0  0  0
    4.7290   -4.7970   29.3120 N   0  0  0  0  0  0  0  0  0  0  0  0
    4.1480   -5.2280   30.5040 C   0  0  0  0  0  0  0  0  0  0  0  0
    3.0470   -6.0220   30.2760 C   0  0  0  0  0  0  0  0  0  0  0  0
    2.4810   -6.8200   31.4020 C   0  0  2  0  0  0  0  0  0  0  0  0
    1.4230   -6.0400   32.2390 C   0  0  0  0  0  0  0  0  0  0  0  0
    0.8620   -7.0330   33.2650 C   0  0  1  0  0  0  0  0  0  0  0  0
    0.3200   -8.0890   32.6100 C   0  0  0  0  0  0  0  0  0  0  0  0
    1.3630   -8.8090   31.8920 C   0  0  2  0  0  0  0  0  0  0  0  0
    2.0850   -8.8940   33.2250 C   0  0  0  0  0  0  0  0  0  0  0  0
    3.1030   -7.9710   33.3320 C   0  0  2  0  0  0  0  0  0  0  0  0
    1.8130   -7.5700   34.0830 C   0  0  0  0  0  0  0  0  0  0  0  0
    3.5410   -7.2450   32.2320 C   0  0  0  0  0  0  0  0  0  0  0  0
    1.9970   -8.0570   30.9430 C   0  0  0  0  0  0  0  0  0  0  0  0
    5.3130   -5.5350   28.3780 C   0  0  0  0  0  0  0  0  0  0  0  0
    6.2280   -5.0630   27.5220 C   0  0  0  0  0  0  0  0  0  0  0  0
    7.1890   -2.9730   23.6000 C   0  0  0  0  0  0  0  0  0  0  0  0
    7.6190   -3.3100   22.2010 C   0  0  0  0  0  0  0  0  0  0  0  0
  1  2  1  0
  2  3  2  0
  2  4  1  0
  4  5  1  0
  5  6  1  0
  6  7  1  0
  7  8  1  0
  8  9  2  0
  8 10  1  0
 10 11  1  0
 11 12  1  0
 12 13  1  0
 13 14  1  0
 14 15  1  0
 16 15  1  6
 16 17  1  0
 18 17  1  6
 18 19  1  0
 20 19  1  1
 20 21  1  0
 22 21  1  6
 18 23  1  0
 22 23  1  0
 16 24  1  0
 22 24  1  0
 16 25  1  0
 20 25  1  0
 13 26  1  0
 10 27  1  0
 26 27  1  0
  7 28  1  0
  4 29  1  0
 28 29  1  0
M  END
