piperidine-amides-4272-covalent
     RDKit          3D

 26 28  0  0  0  0  0  0  0  0999 V2000
    7.0880   -3.2840   19.1680 C   0  0  0  0  0  0  0  0  0  0  0  0
    6.3440   -4.0210   20.2070 C   0  0  0  0  0  0  0  0  0  0  0  0
    5.2520   -4.5260   19.8650 O   0  0  0  0  0  0  0  0  0  0  0  0
    6.8590   -4.2090   21.5120 N   0  0  0  0  0  0  0  0  0  0  0  0
    7.6210   -3.1490   22.0890 C   0  0  0  0  0  0  0  0  0  0  0  0
    7.3850   -2.8760   23.5020 C   0  0  0  0  0  0  0  0  0  0  0  0
    6.8520   -3.9890   24.3250 C   0  0  0  0  0  0  0  0  0  0  0  0
    6.2500   -3.4350   25.5750 C   0  0  0  0  0  0  0  0  0  0  0  0
    5.0220   -3.1900   25.6140 O   0  0  0  0  0  0  0  0  0  0  0  0
    7.0630   -3.1790   26.7050 N   0  0  0  0  0  0  0  0  0  0  0  0
    7.6590   -4.0930   27.6190 C   0  0  2  0  0  0  0  0  0  0  0  0
    8.4300   -5.2570   27.1750 C   0  0  0  0  0  0  0  0  0  0  0  0
    6.5910   -4.6720   28.5020 C   0  0  0  0  0  0  0  0  0  0  0  0
    6.6430   -6.0130   28.9330 C   0  0  0  0  0  0  0  0  0  0  0  0
    5.4710   -6.5210   29.8590 C   0  0  0  0  0  0  0  0  0  0  0  0
    4.4420   -5.4590   30.1530 C   0  0  0  0  0  0  0  0  0  0  0  0
    3.3990   -5.7790   30.9340 N   0  0  0  0  0  0  0  0  0  0  0  0
    3.5240   -6.4670   32.0750 C   0  0  0  0  0  0  0  0  0  0  0  0
    3.0490   -7.9060   31.9060 C   0  0  0  0  0  0  0  0  0  0  0  0
    2.6390   -7.9520   30.4350 C   0  0  0  0  0  0  0  0  0  0  0  0
    2.8370   -6.5380   29.9010 C   0  0  0  0  0  0  0  0  0  0  0  0
    2.4730   -6.3330   28.6930 O   0  0  0  0  0  0  0  0  0  0  0  0
    4.5490   -4.2120   29.6530 C   0  0  0  0  0  0  0  0  0  0  0  0
    5.5760   -3.8400   28.8650 C   0  0  0  0  0  0  0  0  0  0  0  0
    5.9290   -4.9200   23.6160 C   0  0  0  0  0  0  0  0  0  0  0  0
    6.4670   -5.3550   22.2770 C   0  0  0  0  0  0  0  0  0  0  0  0
  1  2  1  0
  2  3  2  0
  2  4  1  0
  4  5  1  0
  5  6  1  0
  6  7  1  0
  7  8  1  0
  8  9  2  0
  8 10  1  0
 10 11  1  0
 11 12  1  6
 11 13  1  0
 13 14  2  0
 14 15  1  0
 15 16  2  0
 16 17  1  0
 17 18  1  0
 18 19  1  0
 19 20  1  0
 17 21  1  0
 20 21  1  0
 21 22  2  0
 16 23  1  0
 13 24  1  0
 23 24  2  0
  7 25  1  0
  4 26  1  0
 25 26  1  0
M  END
