piperidine-amides-10981-covalent
     RDKit          3D

 21 22  0  0  0  0  0  0  0  0999 V2000
    7.1150   -3.2790   19.2010 C   0  0  0  0  0  0  0  0  0  0  0  0
    6.3570   -4.0270   20.2080 C   0  0  0  0  0  0  0  0  0  0  0  0
    5.2830   -4.5590   19.8840 O   0  0  0  0  0  0  0  0  0  0  0  0
    6.8460   -4.2030   21.5070 N   0  0  0  0  0  0  0  0  0  0  0  0
    7.7440   -3.2640   22.1380 C   0  0  0  0  0  0  0  0  0  0  0  0
    7.0410   -2.7740   23.3650 C   0  0  0  0  0  0  0  0  0  0  0  0
    6.4810   -3.8930   24.1870 C   0  0  0  0  0  0  0  0  0  0  0  0
    5.7230   -3.4010   25.3580 C   0  0  0  0  0  0  0  0  0  0  0  0
    4.4550   -3.3850   25.3400 O   0  0  0  0  0  0  0  0  0  0  0  0
    6.3450   -2.9370   26.5320 N   0  0  0  0  0  0  0  0  0  0  0  0
    6.4870   -1.4910   26.8140 C   0  0  0  0  0  0  0  0  0  0  0  0
    5.9410   -0.6760   25.6910 C   0  0  0  0  0  0  0  0  0  0  0  0
    6.8210   -0.3190   24.5490 C   0  0  0  0  0  0  0  0  0  0  0  0
    6.2190    0.5200   23.4520 C   0  0  0  0  0  0  0  0  0  0  0  0
    7.0860    0.8230   22.4260 O   0  0  0  0  0  0  0  0  0  0  0  0
    4.7830    0.9680   23.5240 C   0  0  0  0  0  0  0  0  0  0  0  0
    4.0680    0.5080   24.7350 C   0  0  0  0  0  0  0  0  0  0  0  0
    4.6300   -0.2530   25.7240 C   0  0  0  0  0  0  0  0  0  0  0  0
    3.9760   -0.7000   26.8780 C   0  0  0  0  0  0  0  0  0  0  0  0
    5.5800   -4.8500   23.3970 C   0  0  0  0  0  0  0  0  0  0  0  0
    6.4290   -5.3740   22.2390 C   0  0  0  0  0  0  0  0  0  0  0  0
  1  2  1  0
  2  3  2  0
  2  4  1  0
  4  5  1  0
  5  6  1  0
  6  7  1  0
  7  8  1  0
  8  9  2  0
  8 10  1  0
 10 11  1  0
 11 12  1  0
 12 13  2  0
 13 14  1  0
 14 15  1  0
 14 16  2  0
 16 17  1  0
 12 18  1  0
 17 18  2  0
 18 19  1  0
  7 20  1  0
  4 21  1  0
 20 21  1  0
M  END
