piperidine-amides-13626-covalent
     RDKit          3D

 29 32  0  0  0  0  0  0  0  0999 V2000
    7.0540   -3.3270   19.3500 C   0  0  0  0  0  0  0  0  0  0  0  0
    6.3670   -4.1940   20.3490 C   0  0  0  0  0  0  0  0  0  0  0  0
    5.3670   -4.8330   19.9790 O   0  0  0  0  0  0  0  0  0  0  0  0
    6.8790   -4.3160   21.6700 N   0  0  0  0  0  0  0  0  0  0  0  0
    6.6770   -5.5460   22.4080 C   0  0  0  0  0  0  0  0  0  0  0  0
    6.1330   -5.2040   23.8040 C   0  0  0  0  0  0  0  0  0  0  0  0
    6.0390   -3.7230   23.9150 C   0  0  0  0  0  0  0  0  0  0  0  0
    5.6730   -3.2380   25.2710 C   0  0  0  0  0  0  0  0  0  0  0  0
    4.4700   -3.3060   25.5800 O   0  0  0  0  0  0  0  0  0  0  0  0
    6.6490   -2.7210   26.1270 N   0  0  0  0  0  0  0  0  0  0  0  0
    6.5250   -1.5910   26.9890 C   0  0  0  0  0  0  0  0  0  0  0  0
    6.9930   -1.5760   28.3020 C   0  0  0  0  0  0  0  0  0  0  0  0
    6.8810   -0.4680   29.1670 C   0  0  0  0  0  0  0  0  0  0  0  0
    6.2780    0.6760   28.7210 C   0  0  0  0  0  0  0  0  0  0  0  0
    6.0250    1.8620   29.2950 N   0  0  0  0  0  0  0  0  0  0  0  0
    5.4080    2.6010   28.3910 C   0  0  0  0  0  0  0  0  0  0  0  0
    4.8850    4.0390   28.5150 C   0  0  0  0  0  0  0  0  0  0  0  0
    3.6470    3.9460   29.4150 C   0  0  0  0  0  0  0  0  0  0  0  0
    3.8230    3.4920   30.6780 C   0  0  0  0  0  0  0  0  0  0  0  0
    2.7010    3.3690   31.6110 C   0  0  0  0  0  0  0  0  0  0  0  0
    1.3880    3.8070   30.9650 C   0  0  0  0  0  0  0  0  0  0  0  0
    1.0020    4.2910   29.7170 C   0  0  0  0  0  0  0  0  0  0  0  0
    2.3880    4.3000   28.9940 C   0  0  0  0  0  0  0  0  0  0  0  0
    2.2310    4.7520   27.7330 F   0  0  0  0  0  0  0  0  0  0  0  0
    5.2170    2.0000   27.2110 N   0  0  0  0  0  0  0  0  0  0  0  0
    5.7830    0.7650   27.4460 C   0  0  0  0  0  0  0  0  0  0  0  0
    5.9020   -0.4220   26.5060 C   0  0  0  0  0  0  0  0  0  0  0  0
    7.3360   -3.0340   23.5560 C   0  0  0  0  0  0  0  0  0  0  0  0
    7.6110   -3.2070   22.2130 C   0  0  0  0  0  0  0  0  0  0  0  0
  1  2  1  0
  2  3  2  0
  2  4  1  0
  4  5  1  0
  5  6  1  0
  6  7  1  0
  7  8  1  0
  8  9  2  0
  8 10  1  0
 10 11  1  0
 11 12  2  0
 12 13  1  0
 13 14  2  0
 14 15  1  0
 15 16  1  0
 16 17  1  0
 17 18  1  0
 18 19  2  0
 19 20  1  0
 20 21  2  0
 21 22  1  0
 18 23  1  0
 22 23  2  0
 23 24  1  0
 16 25  2  0
 14 26  1  0
 25 26  1  0
 11 27  1  0
 26 27  2  0
  7 28  1  0
  4 29  1  0
 28 29  1  0
M  END
