piperidine-amides-9077-covalent
     RDKit          3D

 21 22  0  0  0  0  0  0  0  0999 V2000
    7.1360   -3.2420   19.1130 C   0  0  0  0  0  0  0  0  0  0  0  0
    6.3230   -3.9420   20.1080 C   0  0  0  0  0  0  0  0  0  0  0  0
    5.2160   -4.4010   19.8020 O   0  0  0  0  0  0  0  0  0  0  0  0
    6.8010   -4.1580   21.3930 N   0  0  0  0  0  0  0  0  0  0  0  0
    6.3970   -5.2910   22.1840 C   0  0  0  0  0  0  0  0  0  0  0  0
    5.5220   -4.7120   23.2600 C   0  0  0  0  0  0  0  0  0  0  0  0
    6.2440   -3.6360   24.0140 C   0  0  0  0  0  0  0  0  0  0  0  0
    5.4670   -3.0880   25.1370 C   0  0  0  0  0  0  0  0  0  0  0  0
    4.2710   -2.6930   24.9900 O   0  0  0  0  0  0  0  0  0  0  0  0
    6.0210   -3.0020   26.4180 N   0  0  0  0  0  0  0  0  0  0  0  0
    6.0460   -4.2030   27.2640 C   0  0  1  0  0  0  0  0  0  0  0  0
    5.2430   -5.2940   26.6900 C   0  0  0  0  0  0  0  0  0  0  0  0
    7.4100   -4.8190   27.3010 C   0  0  0  0  0  0  0  0  0  0  0  0
    8.1120   -5.1100   28.5590 N   0  0  0  0  0  0  0  0  0  0  0  0
    9.3480   -5.6790   28.0200 C   0  0  0  0  0  0  0  0  0  0  0  0
    9.3370   -5.7150   26.5840 C   0  0  0  0  0  0  0  0  0  0  0  0
    8.2080   -5.2050   26.2820 N   0  0  0  0  0  0  0  0  0  0  0  0
    7.8180   -5.0450   25.0410 C   0  0  0  0  0  0  0  0  0  0  0  0
    8.6900   -4.1070   24.5540 C   0  0  0  0  0  0  0  0  0  0  0  0
    6.7130   -2.5180   23.1220 C   0  0  0  0  0  0  0  0  0  0  0  0
    7.5680   -3.1070   22.0320 C   0  0  0  0  0  0  0  0  0  0  0  0
  1  2  1  0
  2  3  2  0
  2  4  1  0
  4  5  1  0
  5  6  1  0
  6  7  1  0
  7  8  1  0
  8  9  2  0
  8 10  1  0
 10 11  1  0
 11 12  1  6
 11 13  1  0
 13 14  2  0
 14 15  1  0
 15 16  2  0
 13 17  1  0
 16 17  1  0
 17 18  1  0
 18 19  1  0
  7 20  1  0
  4 21  1  0
 20 21  1  0
M  END
