piperidine-amides-11641-covalent
     RDKit          3D

 30 33  0  0  0  0  0  0  0  0999 V2000
    7.0180   -3.3510   19.3740 C   0  0  0  0  0  0  0  0  0  0  0  0
    6.3560   -4.1870   20.3750 C   0  0  0  0  0  0  0  0  0  0  0  0
    5.4230   -4.9060   20.0080 O   0  0  0  0  0  0  0  0  0  0  0  0
    6.7980   -4.2110   21.7600 N   0  0  0  0  0  0  0  0  0  0  0  0
    7.6540   -3.1540   22.2720 C   0  0  0  0  0  0  0  0  0  0  0  0
    7.5170   -2.9740   23.7710 C   0  0  0  0  0  0  0  0  0  0  0  0
    6.1770   -3.5620   24.1710 C   0  0  0  0  0  0  0  0  0  0  0  0
    5.7600   -3.3400   25.6050 C   0  0  0  0  0  0  0  0  0  0  0  0
    4.6050   -3.6490   25.9570 O   0  0  0  0  0  0  0  0  0  0  0  0
    6.6140   -2.7610   26.6030 N   0  0  0  0  0  0  0  0  0  0  0  0
    6.3980   -1.3530   26.9060 C   0  0  0  0  0  0  0  0  0  0  0  0
    5.8430   -0.4580   25.8470 C   0  0  0  0  0  0  0  0  0  0  0  0
    5.6080    0.8790   26.0600 C   0  0  0  0  0  0  0  0  0  0  0  0
    5.8820    1.4580   27.2880 C   0  0  0  0  0  0  0  0  0  0  0  0
    6.3840    0.7330   28.3090 C   0  0  0  0  0  0  0  0  0  0  0  0
    6.6820   -0.6570   28.2530 C   0  0  0  0  0  0  0  0  0  0  0  0
    7.1860   -1.2370   29.3950 C   0  0  0  0  0  0  0  0  0  0  0  0
    6.9850   -0.1580   30.2780 N   0  0  0  0  0  0  0  0  0  0  0  0
    7.6840   -0.1890   31.5060 C   0  0  1  0  0  0  0  0  0  0  0  0
    8.8180    0.6240   31.5090 C   0  0  0  0  0  0  0  0  0  0  0  0
    9.3770    0.9420   32.8420 C   0  0  0  0  0  0  0  0  0  0  0  0
    8.6640    0.5400   33.9690 C   0  0  0  0  0  0  0  0  0  0  0  0
    9.2630    0.1250   35.1250 O   0  0  0  0  0  0  0  0  0  0  0  0
    7.2390    0.5850   33.8580 N   0  0  0  0  0  0  0  0  0  0  0  0
    6.7650    0.1310   32.6230 C   0  0  0  0  0  0  0  0  0  0  0  0
    5.5280   -0.0240   32.4530 O   0  0  0  0  0  0  0  0  0  0  0  0
    6.7410    1.0570   29.6220 C   0  0  0  0  0  0  0  0  0  0  0  0
    6.8350    2.3860   30.1570 O   0  0  0  0  0  0  0  0  0  0  0  0
    6.0730   -5.0270   23.8980 C   0  0  0  0  0  0  0  0  0  0  0  0
    6.6230   -5.4140   22.5340 C   0  0  0  0  0  0  0  0  0  0  0  0
  1  2  1  0
  2  3  2  0
  2  4  1  0
  4  5  1  0
  5  6  1  0
  6  7  1  0
  7  8  1  0
  8  9  2  0
  8 10  1  0
 10 11  1  0
 11 12  2  0
 12 13  1  0
 13 14  2  0
 14 15  1  0
 11 16  1  0
 15 16  2  0
 16 17  1  0
 17 18  1  0
 19 18  1  6
 19 20  1  0
 20 21  1  0
 21 22  1  0
 22 23  2  0
 22 24  1  0
 19 25  1  0
 24 25  1  0
 25 26  2  0
 15 27  1  0
 18 27  1  0
 27 28  2  0
  7 29  1  0
  4 30  1  0
 29 30  1  0
M  END
