piperidine-amides-19107-covalent
     RDKit          3D

 20 20  0  0  0  0  0  0  0  0999 V2000
    7.0210   -3.3330   19.1900 C   0  0  0  0  0  0  0  0  0  0  0  0
    6.2660   -4.0080   20.2310 C   0  0  0  0  0  0  0  0  0  0  0  0
    5.2190   -4.6270   19.8930 O   0  0  0  0  0  0  0  0  0  0  0  0
    6.6640   -4.0420   21.5730 N   0  0  0  0  0  0  0  0  0  0  0  0
    6.6320   -5.3680   22.2300 C   0  0  0  0  0  0  0  0  0  0  0  0
    5.6800   -5.0820   23.4560 C   0  0  0  0  0  0  0  0  0  0  0  0
    5.9950   -3.6790   23.9280 C   0  0  0  0  0  0  0  0  0  0  0  0
    5.2660   -3.4440   25.3260 C   0  0  0  0  0  0  0  0  0  0  0  0
    4.1400   -3.9080   25.2800 O   0  0  0  0  0  0  0  0  0  0  0  0
    6.0150   -2.8200   26.1570 N   0  0  0  0  0  0  0  0  0  0  0  0
    6.6980   -1.7580   26.6840 C   0  0  0  0  0  0  0  0  0  0  0  0
    6.0240   -3.6910   27.2820 C   0  0  2  0  0  0  0  0  0  0  0  0
    6.7500   -3.2800   28.4280 C   0  0  0  0  0  0  0  0  0  0  0  0
    6.6090   -5.0650   26.8720 C   0  0  0  0  0  0  0  0  0  0  0  0
    6.8540   -5.5030   28.3220 C   0  0  0  0  0  0  0  0  0  0  0  0
    5.4210   -5.1700   29.3200 S   0  0  0  0  0  0  0  0  0  0  0  0
    5.1330   -6.5470   30.2450 C   0  0  0  0  0  0  0  0  0  0  0  0
    5.8220   -7.7470   30.1140 C   0  0  0  0  0  0  0  0  0  0  0  0
    7.3000   -3.1810   23.7020 C   0  0  0  0  0  0  0  0  0  0  0  0
    7.4760   -3.0650   22.1650 C   0  0  0  0  0  0  0  0  0  0  0  0
  1  2  1  0
  2  3  2  0
  2  4  1  0
  4  5  1  0
  5  6  1  0
  6  7  1  0
  7  8  1  0
  8  9  2  0
  8 10  1  0
 10 11  1  0
 10 12  1  0
 12 13  1  1
 12 14  1  0
 14 15  1  0
 15 16  1  0
 16 17  1  0
 17 18  1  0
  7 19  1  0
  4 20  1  0
 19 20  1  0
M  END
