piperidine-amides-2619-covalent
     RDKit          3D

 25 27  0  0  0  0  0  0  0  0999 V2000
    7.1390   -3.2630   19.2100 C   0  0  0  0  0  0  0  0  0  0  0  0
    6.3820   -4.0390   20.2240 C   0  0  0  0  0  0  0  0  0  0  0  0
    5.3080   -4.5300   19.8790 O   0  0  0  0  0  0  0  0  0  0  0  0
    6.9250   -4.2270   21.4880 N   0  0  0  0  0  0  0  0  0  0  0  0
    7.6550   -3.1690   22.1250 C   0  0  0  0  0  0  0  0  0  0  0  0
    6.8500   -2.6860   23.2910 C   0  0  0  0  0  0  0  0  0  0  0  0
    6.5730   -3.8650   24.2230 C   0  0  0  0  0  0  0  0  0  0  0  0
    5.7720   -3.3560   25.3480 C   0  0  0  0  0  0  0  0  0  0  0  0
    4.5370   -3.3170   25.2340 O   0  0  0  0  0  0  0  0  0  0  0  0
    6.3790   -2.9080   26.5320 N   0  0  0  0  0  0  0  0  0  0  0  0
    6.5230   -1.4850   26.7190 C   0  0  0  0  0  0  0  0  0  0  0  0
    5.7320   -1.1180   27.9560 C   0  0  0  0  0  0  0  0  0  0  0  0
    5.9240    0.0620   28.6290 C   0  0  0  0  0  0  0  0  0  0  0  0
    5.2260    1.0710   28.0520 C   0  0  0  0  0  0  0  0  0  0  0  0
    5.7090    1.6580   26.9420 C   0  0  0  0  0  0  0  0  0  0  0  0
    5.1670    2.7780   26.0990 C   0  0  0  0  0  0  0  0  0  0  0  0
    3.8490    3.2900   26.6410 C   0  0  0  0  0  0  0  0  0  0  0  0
    3.2460    2.6650   27.9010 C   0  0  0  0  0  0  0  0  0  0  0  0
    4.0320    1.5550   28.5220 C   0  0  0  0  0  0  0  0  0  0  0  0
    6.2580   -1.7520   29.2410 C   0  0  0  0  0  0  0  0  0  0  0  0
    5.1830   -2.6950   29.7300 C   0  0  0  0  0  0  0  0  0  0  0  0
    3.9940   -2.5410   28.9030 C   0  0  0  0  0  0  0  0  0  0  0  0
    4.3780   -1.5010   27.8940 C   0  0  0  0  0  0  0  0  0  0  0  0
    5.7820   -4.9270   23.4910 C   0  0  0  0  0  0  0  0  0  0  0  0
    6.4820   -5.3630   22.2310 C   0  0  0  0  0  0  0  0  0  0  0  0
  1  2  1  0
  2  3  2  0
  2  4  1  0
  4  5  1  0
  5  6  1  0
  6  7  1  0
  7  8  1  0
  8  9  2  0
  8 10  1  0
 10 11  1  0
 12 11  1  0
 12 13  1  0
 13 14  1  0
 14 15  2  0
 15 16  1  0
 16 17  2  0
 17 18  1  0
 14 19  1  0
 18 19  2  0
 12 20  1  0
 20 21  1  0
 21 22  1  0
 12 23  1  0
 22 23  1  0
  7 24  1  0
  4 25  1  0
 24 25  1  0
M  END
