piperidine-amides-1166-covalent
     RDKit          3D

 23 25  0  0  0  0  0  0  0  0999 V2000
    7.0940   -3.2100   19.1900 C   0  0  0  0  0  0  0  0  0  0  0  0
    6.1780   -3.8120   20.2220 C   0  0  0  0  0  0  0  0  0  0  0  0
    5.3170   -4.6240   19.8800 O   0  0  0  0  0  0  0  0  0  0  0  0
    6.2270   -3.4670   21.5870 N   0  0  0  0  0  0  0  0  0  0  0  0
    7.4290   -3.0740   22.2710 C   0  0  0  0  0  0  0  0  0  0  0  0
    7.1510   -2.2740   23.5640 C   0  0  0  0  0  0  0  0  0  0  0  0
    5.9440   -2.7960   24.2840 C   0  0  0  0  0  0  0  0  0  0  0  0
    5.9780   -2.6630   25.7600 C   0  0  0  0  0  0  0  0  0  0  0  0
    4.8640   -2.5590   26.2880 O   0  0  0  0  0  0  0  0  0  0  0  0
    7.1860   -2.6640   26.4950 N   0  0  0  0  0  0  0  0  0  0  0  0
    7.6190   -3.6610   27.4220 C   0  0  0  0  0  0  0  0  0  0  0  0
    7.8920   -4.9350   27.0090 C   0  0  0  0  0  0  0  0  0  0  0  0
    7.0710   -5.3830   25.9810 C   0  0  0  0  0  0  0  0  0  0  0  0
    5.7570   -5.8060   26.3130 C   0  0  0  0  0  0  0  0  0  0  0  0
    4.7090   -6.3030   25.3670 C   0  0  0  0  0  0  0  0  0  0  0  0
    5.1070   -6.3470   23.9220 C   0  0  0  0  0  0  0  0  0  0  0  0
    4.5430   -6.7050   22.6660 N   0  0  0  0  0  0  0  0  0  0  0  0
    5.5770   -6.4630   21.6680 C   0  0  0  0  0  0  0  0  0  0  0  0
    6.7300   -5.9870   22.2790 C   0  0  0  0  0  0  0  0  0  0  0  0
    6.4630   -5.8980   23.7080 C   0  0  0  0  0  0  0  0  0  0  0  0
    7.5610   -5.3940   24.6190 C   0  0  0  0  0  0  0  0  0  0  0  0
    5.6530   -4.1290   23.8130 C   0  0  0  0  0  0  0  0  0  0  0  0
    5.1670   -3.9800   22.3780 C   0  0  0  0  0  0  0  0  0  0  0  0
  1  2  1  0
  2  3  2  0
  2  4  1  0
  4  5  1  0
  5  6  1  0
  6  7  1  0
  7  8  1  0
  8  9  2  0
  8 10  1  0
 10 11  1  0
 11 12  1  0
 12 13  1  0
 13 14  2  0
 14 15  1  0
 15 16  2  0
 16 17  1  0
 17 18  1  0
 18 19  2  0
 16 20  1  0
 19 20  1  0
 13 21  1  0
 20 21  2  0
  7 22  1  0
  4 23  1  0
 22 23  1  0
M  END
