piperidine-amides-11444-covalent
     RDKit          3D

 24 26  0  0  0  0  0  0  0  0999 V2000
    7.0290   -3.3390   19.3350 C   0  0  0  0  0  0  0  0  0  0  0  0
    6.3600   -4.1590   20.3530 C   0  0  0  0  0  0  0  0  0  0  0  0
    5.4110   -4.8800   19.9940 O   0  0  0  0  0  0  0  0  0  0  0  0
    6.7910   -4.1760   21.7000 N   0  0  0  0  0  0  0  0  0  0  0  0
    7.7290   -3.1940   22.2150 C   0  0  0  0  0  0  0  0  0  0  0  0
    7.3520   -3.0200   23.6500 C   0  0  0  0  0  0  0  0  0  0  0  0
    6.0860   -3.7690   23.9030 C   0  0  0  0  0  0  0  0  0  0  0  0
    5.4610   -3.5040   25.2260 C   0  0  0  0  0  0  0  0  0  0  0  0
    4.2090   -3.6140   25.3600 O   0  0  0  0  0  0  0  0  0  0  0  0
    6.1640   -3.1110   26.3810 N   0  0  0  0  0  0  0  0  0  0  0  0
    6.4930   -1.6890   26.5780 C   0  0  2  0  0  0  0  0  0  0  0  0
    6.5310   -1.3890   27.8930 C   0  0  0  0  0  0  0  0  0  0  0  0
    5.4010   -0.6670   27.1910 C   0  0  1  0  0  0  0  0  0  0  0  0
    5.6340    0.4970   26.2440 C   0  0  0  0  0  0  0  0  0  0  0  0
    5.1590    0.6950   24.8440 C   0  0  0  0  0  0  0  0  0  0  0  0
    5.6620    2.0040   24.3640 N   0  0  0  0  0  0  0  0  0  0  0  0
    6.3670    2.5280   25.3850 N   0  0  0  0  0  0  0  0  0  0  0  0
    6.9110    3.7230   25.1430 C   0  0  0  0  0  0  0  0  0  0  0  0
    8.2630    3.5420   25.2240 C   0  0  0  0  0  0  0  0  0  0  0  0
    8.9900    3.0430   24.1360 C   0  0  0  0  0  0  0  0  0  0  0  0
    9.3350    4.4550   24.6070 C   0  0  0  0  0  0  0  0  0  0  0  0
    6.4190    1.7070   26.5790 C   0  0  0  0  0  0  0  0  0  0  0  0
    6.3640   -5.2560   23.6280 C   0  0  0  0  0  0  0  0  0  0  0  0
    6.5510   -5.4340   22.4310 C   0  0  0  0  0  0  0  0  0  0  0  0
  1  2  1  0
  2  3  2  0
  2  4  1  0
  4  5  1  0
  5  6  1  0
  6  7  1  0
  7  8  1  0
  8  9  2  0
  8 10  1  0
 11 10  1  1
 11 12  1  0
 11 13  1  0
 12 13  1  0
 13 14  1  6
 14 15  1  0
 15 16  2  0
 16 17  1  0
 17 18  1  0
 18 19  1  0
 19 20  1  0
 19 21  1  0
 14 22  2  0
 17 22  1  0
  7 23  1  0
  4 24  1  0
 23 24  1  0
M  END
