piperidine-amides-11715-covalent
     RDKit          3D

 28 29  0  0  0  0  0  0  0  0999 V2000
    7.1090   -3.3130   19.2380 C   0  0  0  0  0  0  0  0  0  0  0  0
    6.3800   -4.0930   20.2340 C   0  0  0  0  0  0  0  0  0  0  0  0
    5.3190   -4.6310   19.9190 O   0  0  0  0  0  0  0  0  0  0  0  0
    6.9300   -4.2970   21.5430 N   0  0  0  0  0  0  0  0  0  0  0  0
    6.5170   -5.4220   22.3260 C   0  0  0  0  0  0  0  0  0  0  0  0
    5.5960   -4.9660   23.4220 C   0  0  0  0  0  0  0  0  0  0  0  0
    6.1450   -3.7190   24.1150 C   0  0  0  0  0  0  0  0  0  0  0  0
    5.0000   -2.9800   24.7120 C   0  0  0  0  0  0  0  0  0  0  0  0
    4.0720   -2.5490   24.0220 O   0  0  0  0  0  0  0  0  0  0  0  0
    4.9450   -2.7580   26.0950 N   0  0  0  0  0  0  0  0  0  0  0  0
    5.5170   -3.7500   26.9300 C   0  0  1  0  0  0  0  0  0  0  0  0
    6.8350   -3.1470   27.1820 C   0  0  0  0  0  0  0  0  0  0  0  0
    7.8230   -3.8640   26.6660 C   0  0  0  0  0  0  0  0  0  0  0  0
    8.6020   -3.3530   25.5970 C   0  0  0  0  0  0  0  0  0  0  0  0
    9.6130   -4.1220   25.1090 C   0  0  0  0  0  0  0  0  0  0  0  0
    9.8020   -5.3840   25.7430 C   0  0  0  0  0  0  0  0  0  0  0  0
    9.0600   -5.8430   26.7140 C   0  0  0  0  0  0  0  0  0  0  0  0
    8.0510   -5.1130   27.1980 C   0  0  0  0  0  0  0  0  0  0  0  0
    7.2470   -5.5800   28.1950 C   0  0  0  0  0  0  0  0  0  0  0  0
    6.8030   -4.7350   29.1380 F   0  0  0  0  0  0  0  0  0  0  0  0
    7.6980   -6.5950   28.8730 F   0  0  0  0  0  0  0  0  0  0  0  0
    6.0750   -5.9920   27.5870 F   0  0  0  0  0  0  0  0  0  0  0  0
    4.7620   -4.1850   28.0350 C   0  0  0  0  0  0  0  0  0  0  0  0
    3.5900   -3.4920   28.2520 C   0  0  0  0  0  0  0  0  0  0  0  0
    4.3040   -5.5870   27.7930 C   0  0  0  0  0  0  0  0  0  0  0  0
    5.4610   -4.1670   29.3330 C   0  0  0  0  0  0  0  0  0  0  0  0
    6.8180   -2.6850   23.2460 C   0  0  0  0  0  0  0  0  0  0  0  0
    7.7000   -3.2800   22.1810 C   0  0  0  0  0  0  0  0  0  0  0  0
  1  2  1  0
  2  3  2  0
  2  4  1  0
  4  5  1  0
  5  6  1  0
  6  7  1  0
  7  8  1  0
  8  9  2  0
  8 10  1  0
 10 11  1  0
 11 12  1  1
 12 13  1  0
 13 14  2  0
 14 15  1  0
 15 16  2  0
 16 17  1  0
 13 18  1  0
 17 18  2  0
 18 19  1  0
 19 20  1  0
 19 21  1  0
 19 22  1  0
 11 23  1  0
 23 24  1  0
 23 25  1  0
 23 26  1  0
  7 27  1  0
  4 28  1  0
 27 28  1  0
M  END
