piperidine-amides-25159-covalent
     RDKit          3D

 25 28  0  0  0  0  0  0  0  0999 V2000
    7.1030   -3.2620   19.2380 C   0  0  0  0  0  0  0  0  0  0  0  0
    6.3680   -4.0500   20.2650 C   0  0  0  0  0  0  0  0  0  0  0  0
    5.3180   -4.5790   19.9030 O   0  0  0  0  0  0  0  0  0  0  0  0
    6.8910   -4.2060   21.5620 N   0  0  0  0  0  0  0  0  0  0  0  0
    6.5820   -5.3830   22.3360 C   0  0  0  0  0  0  0  0  0  0  0  0
    6.1080   -4.9930   23.7170 C   0  0  0  0  0  0  0  0  0  0  0  0
    6.1210   -3.4670   23.8990 C   0  0  0  0  0  0  0  0  0  0  0  0
    5.7870   -3.1480   25.3010 C   0  0  0  0  0  0  0  0  0  0  0  0
    5.6260   -4.0620   26.1120 O   0  0  0  0  0  0  0  0  0  0  0  0
    5.6200   -1.8110   25.7220 N   0  0  0  0  0  0  0  0  0  0  0  0
    6.1080   -1.4610   27.0210 C   0  0  0  0  0  0  0  0  0  0  0  0
    4.7730   -0.8360   27.1120 C   0  0  1  0  0  0  0  0  0  0  0  0
    4.6750    0.4790   27.5420 C   0  0  0  0  0  0  0  0  0  0  0  0
    5.6070    1.1720   26.8830 C   0  0  0  0  0  0  0  0  0  0  0  0
    5.3910    0.7410   25.6570 C   0  0  0  0  0  0  0  0  0  0  0  0
    4.0040    0.1760   25.5080 C   0  0  0  0  0  0  0  0  0  0  0  0
    4.2570   -1.3030   25.7370 C   0  0  1  0  0  0  0  0  0  0  0  0
    2.9060   -1.9560   25.8700 C   0  0  0  0  0  0  0  0  0  0  0  0
    1.9560   -1.2340   26.7760 C   0  0  0  0  0  0  0  0  0  0  0  0
    0.6120   -1.8590   26.9310 C   0  0  0  0  0  0  0  0  0  0  0  0
    0.3140   -3.1390   26.1830 C   0  0  0  0  0  0  0  0  0  0  0  0
    1.3380   -3.7660   25.3100 C   0  0  0  0  0  0  0  0  0  0  0  0
    2.6950   -3.1210   25.1620 C   0  0  0  0  0  0  0  0  0  0  0  0
    7.4940   -2.9700   23.5620 C   0  0  0  0  0  0  0  0  0  0  0  0
    7.7190   -3.1480   22.0890 C   0  0  0  0  0  0  0  0  0  0  0  0
  1  2  1  0
  2  3  2  0
  2  4  1  0
  4  5  1  0
  5  6  1  0
  6  7  1  0
  7  8  1  0
  8  9  2  0
  8 10  1  0
 10 11  1  0
 12 11  1  6
 12 13  1  0
 13 14  1  0
 14 15  1  0
 15 16  1  0
 10 17  1  0
 12 17  1  0
 16 17  1  0
 17 18  1  1
 18 19  2  0
 19 20  1  0
 20 21  2  0
 21 22  1  0
 18 23  1  0
 22 23  2  0
  7 24  1  0
  4 25  1  0
 24 25  1  0
M  END
