piperidine-amides-33863-covalent
     RDKit          3D

 30 32  0  0  0  0  0  0  0  0999 V2000
    7.0830   -3.3620   19.3730 C   0  0  0  0  0  0  0  0  0  0  0  0
    6.4380   -4.2370   20.3620 C   0  0  0  0  0  0  0  0  0  0  0  0
    5.3980   -4.8330   19.9840 O   0  0  0  0  0  0  0  0  0  0  0  0
    7.0000   -4.4440   21.6530 N   0  0  0  0  0  0  0  0  0  0  0  0
    6.4600   -5.4900   22.4240 C   0  0  0  0  0  0  0  0  0  0  0  0
    5.7270   -5.0330   23.6100 C   0  0  0  0  0  0  0  0  0  0  0  0
    6.2240   -3.8300   24.3430 C   0  0  0  0  0  0  0  0  0  0  0  0
    5.1270   -3.3090   25.2500 C   0  0  0  0  0  0  0  0  0  0  0  0
    3.9910   -3.1780   24.7790 O   0  0  0  0  0  0  0  0  0  0  0  0
    5.3240   -2.9690   26.6090 N   0  0  0  0  0  0  0  0  0  0  0  0
    6.5320   -2.9920   27.2190 C   0  0  0  0  0  0  0  0  0  0  0  0
    6.6620   -3.9510   28.2960 C   0  0  0  0  0  0  0  0  0  0  0  0
    5.6630   -4.2770   29.0690 N   0  0  0  0  0  0  0  0  0  0  0  0
    5.7770   -5.4890   29.7790 C   0  0  0  0  0  0  0  0  0  0  0  0
    6.9980   -6.0880   29.6230 O   0  0  0  0  0  0  0  0  0  0  0  0
    4.8220   -5.9000   30.4380 O   0  0  0  0  0  0  0  0  0  0  0  0
    4.6970   -7.1830   30.6850 C   0  0  0  0  0  0  0  0  0  0  0  0
    5.5670   -7.9550   29.6880 C   0  0  0  0  0  0  0  0  0  0  0  0
    3.2670   -7.7450   30.6940 C   0  0  0  0  0  0  0  0  0  0  0  0
    5.5090   -7.6490   31.8390 C   0  0  0  0  0  0  0  0  0  0  0  0
    4.3960   -3.8830   28.6710 C   0  0  0  0  0  0  0  0  0  0  0  0
    4.2650   -2.8430   27.5560 C   0  0  1  0  0  0  0  0  0  0  0  0
    4.0630   -1.4270   28.1240 C   0  0  0  0  0  0  0  0  0  0  0  0
    5.1410   -0.8340   28.9550 C   0  0  0  0  0  0  0  0  0  0  0  0
    4.9780    0.4370   29.4760 C   0  0  0  0  0  0  0  0  0  0  0  0
    3.8030    1.0880   29.1860 C   0  0  0  0  0  0  0  0  0  0  0  0
    2.7560    0.4040   28.3280 C   0  0  0  0  0  0  0  0  0  0  0  0
    2.8960   -0.8390   27.8090 N   0  0  0  0  0  0  0  0  0  0  0  0
    6.7990   -2.7630   23.4460 C   0  0  0  0  0  0  0  0  0  0  0  0
    7.6270   -3.3450   22.3130 C   0  0  0  0  0  0  0  0  0  0  0  0
  1  2  1  0
  2  3  2  0
  2  4  1  0
  4  5  1  0
  5  6  1  0
  6  7  1  0
  7  8  1  0
  8  9  2  0
  8 10  1  0
 10 11  1  0
 11 12  1  0
 12 13  1  0
 13 14  1  0
 14 15  2  0
 14 16  1  0
 17 16  1  0
 17 18  1  0
 17 19  1  0
 17 20  1  0
 13 21  1  0
 10 22  1  0
 21 22  1  0
 22 23  1  1
 23 24  2  0
 24 25  1  0
 25 26  2  0
 26 27  1  0
 23 28  1  0
 27 28  2  0
  7 29  1  0
  4 30  1  0
 29 30  1  0
M  END
