piperidine-amides-3052-covalent
     RDKit          3D

 23 24  0  0  0  0  0  0  0  0999 V2000
    7.0170   -3.3030   19.2290 C   0  0  0  0  0  0  0  0  0  0  0  0
    6.2630   -4.0690   20.2250 C   0  0  0  0  0  0  0  0  0  0  0  0
    5.2290   -4.6350   19.8950 O   0  0  0  0  0  0  0  0  0  0  0  0
    6.7310   -4.2160   21.5710 N   0  0  0  0  0  0  0  0  0  0  0  0
    7.5340   -3.1950   22.1640 C   0  0  0  0  0  0  0  0  0  0  0  0
    7.3160   -3.2510   23.6340 C   0  0  0  0  0  0  0  0  0  0  0  0
    5.9260   -3.7790   23.8860 C   0  0  0  0  0  0  0  0  0  0  0  0
    5.5760   -3.6140   25.3320 C   0  0  0  0  0  0  0  0  0  0  0  0
    4.3980   -3.4520   25.7060 O   0  0  0  0  0  0  0  0  0  0  0  0
    6.6180   -3.6060   26.2900 N   0  0  0  0  0  0  0  0  0  0  0  0
    6.7180   -4.5870   27.3730 C   0  0  2  0  0  0  0  0  0  0  0  0
    7.6140   -5.7210   26.9600 C   0  0  0  0  0  0  0  0  0  0  0  0
    5.4380   -5.1960   27.7880 C   0  0  0  0  0  0  0  0  0  0  0  0
    4.5600   -5.7490   26.7890 C   0  0  0  0  0  0  0  0  0  0  0  0
    3.3170   -6.3610   27.0480 C   0  0  0  0  0  0  0  0  0  0  0  0
    2.8480   -6.4650   28.4060 C   0  0  0  0  0  0  0  0  0  0  0  0
    1.7350   -7.0040   28.7140 O   0  0  0  0  0  0  0  0  0  0  0  0
    1.6990   -8.3520   28.3670 C   0  0  0  0  0  0  0  0  0  0  0  0
    3.6960   -5.9470   29.2630 C   0  0  0  0  0  0  0  0  0  0  0  0
    3.9170   -5.7050   30.6160 C   0  0  0  0  0  0  0  0  0  0  0  0
    4.9640   -5.3130   29.0750 C   0  0  0  0  0  0  0  0  0  0  0  0
    5.7380   -5.2080   23.4040 C   0  0  0  0  0  0  0  0  0  0  0  0
    6.5560   -5.4520   22.2910 C   0  0  0  0  0  0  0  0  0  0  0  0
  1  2  1  0
  2  3  2  0
  2  4  1  0
  4  5  1  0
  5  6  1  0
  6  7  1  0
  7  8  1  0
  8  9  2  0
  8 10  1  0
 10 11  1  0
 11 12  1  6
 11 13  1  0
 13 14  2  0
 14 15  1  0
 15 16  2  0
 16 17  1  0
 17 18  1  0
 16 19  1  0
 19 20  1  0
 13 21  1  0
 19 21  2  0
  7 22  1  0
  4 23  1  0
 22 23  1  0
M  END
