piperidine-amides-11719-covalent
     RDKit          3D

 28 30  0  0  0  0  0  0  0  0999 V2000
    7.0720   -3.3730   19.3500 C   0  0  0  0  0  0  0  0  0  0  0  0
    6.3520   -4.1660   20.3350 C   0  0  0  0  0  0  0  0  0  0  0  0
    5.3750   -4.8220   19.9840 O   0  0  0  0  0  0  0  0  0  0  0  0
    6.8210   -4.2200   21.6950 N   0  0  0  0  0  0  0  0  0  0  0  0
    7.7140   -3.2060   22.2070 C   0  0  0  0  0  0  0  0  0  0  0  0
    7.4220   -2.9410   23.6540 C   0  0  0  0  0  0  0  0  0  0  0  0
    6.0830   -3.5860   23.9440 C   0  0  0  0  0  0  0  0  0  0  0  0
    5.6120   -3.2200   25.3100 C   0  0  0  0  0  0  0  0  0  0  0  0
    4.4030   -3.2020   25.6070 O   0  0  0  0  0  0  0  0  0  0  0  0
    6.5620   -2.8810   26.2990 N   0  0  0  0  0  0  0  0  0  0  0  0
    6.4190   -1.6400   27.0270 C   0  0  0  0  0  0  0  0  0  0  0  0
    7.0090   -1.6770   28.4130 C   0  0  0  0  0  0  0  0  0  0  0  0
    6.9640   -0.5810   29.2550 C   0  0  0  0  0  0  0  0  0  0  0  0
    6.3570    0.6240   28.8490 C   0  0  0  0  0  0  0  0  0  0  0  0
    6.3110    1.7110   29.6990 C   0  0  0  0  0  0  0  0  0  0  0  0
    5.3550    1.5340   30.7860 C   0  0  0  0  0  0  0  0  0  0  0  0
    5.6150    1.9200   32.0830 C   0  0  2  0  0  0  0  0  0  0  0  0
    6.1170    3.1050   32.3210 O   0  0  0  0  0  0  0  0  0  0  0  0
    6.4120    1.1360   32.8980 C   0  0  0  0  0  0  0  0  0  0  0  0
    5.8730    0.2920   33.8750 C   0  0  0  0  0  0  0  0  0  0  0  0
    6.6770   -0.5540   34.7650 C   0  0  0  0  0  0  0  0  0  0  0  0
    8.0460   -0.5400   34.6600 C   0  0  0  0  0  0  0  0  0  0  0  0
    8.6140    0.2830   33.7020 C   0  0  0  0  0  0  0  0  0  0  0  0
    7.7660    1.1330   32.8080 C   0  0  0  0  0  0  0  0  0  0  0  0
    5.8000    0.7050   27.5790 C   0  0  0  0  0  0  0  0  0  0  0  0
    5.8200   -0.4540   26.6180 C   0  0  0  0  0  0  0  0  0  0  0  0
    6.0660   -5.0650   23.7490 C   0  0  0  0  0  0  0  0  0  0  0  0
    6.5500   -5.3940   22.4770 C   0  0  0  0  0  0  0  0  0  0  0  0
  1  2  1  0
  2  3  2  0
  2  4  1  0
  4  5  1  0
  5  6  1  0
  6  7  1  0
  7  8  1  0
  8  9  2  0
  8 10  1  0
 10 11  1  0
 11 12  2  0
 12 13  1  0
 13 14  2  0
 14 15  1  0
 15 16  1  0
 16 17  1  0
 17 18  1  6
 17 19  1  0
 19 20  2  0
 20 21  1  0
 21 22  2  0
 22 23  1  0
 19 24  1  0
 23 24  2  0
 14 25  1  0
 11 26  1  0
 25 26  2  0
  7 27  1  0
  4 28  1  0
 27 28  1  0
M  END
