piperidine-amides-32193-covalent
     RDKit          3D

 28 30  0  0  0  0  0  0  0  0999 V2000
    7.0810   -3.3770   19.3700 C   0  0  0  0  0  0  0  0  0  0  0  0
    6.3770   -4.2430   20.3490 C   0  0  0  0  0  0  0  0  0  0  0  0
    5.3610   -4.8510   19.9800 O   0  0  0  0  0  0  0  0  0  0  0  0
    6.9120   -4.3920   21.6500 N   0  0  0  0  0  0  0  0  0  0  0  0
    6.6920   -5.6090   22.4160 C   0  0  0  0  0  0  0  0  0  0  0  0
    6.2240   -5.2340   23.8380 C   0  0  0  0  0  0  0  0  0  0  0  0
    6.0720   -3.7570   23.8510 C   0  0  0  0  0  0  0  0  0  0  0  0
    5.3700   -3.1230   24.9860 C   0  0  0  0  0  0  0  0  0  0  0  0
    4.7810   -2.0890   24.6980 O   0  0  0  0  0  0  0  0  0  0  0  0
    5.3360   -3.6160   26.2840 N   0  0  0  0  0  0  0  0  0  0  0  0
    6.3100   -3.3260   27.1980 C   0  0  0  0  0  0  0  0  0  0  0  0
    6.4440   -4.0870   28.3110 C   0  0  1  0  0  0  0  0  0  0  0  0
    5.9490   -3.4570   29.4210 C   0  0  0  0  0  0  0  0  0  0  0  0
    4.7280   -2.8360   29.4260 C   0  0  0  0  0  0  0  0  0  0  0  0
    3.5190   -3.6060   29.1190 C   0  0  0  0  0  0  0  0  0  0  0  0
    3.7310   -4.4670   27.8920 C   0  0  1  0  0  0  0  0  0  0  0  0
    4.0290   -3.3810   26.8520 C   0  0  0  0  0  0  0  0  0  0  0  0
    4.6130   -5.5530   28.1290 N   0  0  0  0  0  0  0  0  0  0  0  0
    4.0140   -6.7420   28.3140 C   0  0  0  0  0  0  0  0  0  0  0  0
    4.0110   -7.7240   27.3590 O   0  0  0  0  0  0  0  0  0  0  0  0
    3.3380   -6.9390   29.5080 O   0  0  0  0  0  0  0  0  0  0  0  0
    3.8950   -7.0630   30.7920 C   0  0  0  0  0  0  0  0  0  0  0  0
    3.8680   -5.6920   31.4320 C   0  0  0  0  0  0  0  0  0  0  0  0
    3.2670   -8.1010   31.6770 C   0  0  0  0  0  0  0  0  0  0  0  0
    5.4060   -7.4240   30.7320 C   0  0  0  0  0  0  0  0  0  0  0  0
    6.0380   -5.4030   28.2820 C   0  0  0  0  0  0  0  0  0  0  0  0
    7.3990   -3.0930   23.6340 C   0  0  0  0  0  0  0  0  0  0  0  0
    7.7320   -3.2980   22.2140 C   0  0  0  0  0  0  0  0  0  0  0  0
  1  2  1  0
  2  3  2  0
  2  4  1  0
  4  5  1  0
  5  6  1  0
  6  7  1  0
  7  8  1  0
  8  9  2  0
  8 10  1  0
 10 11  1  0
 12 11  1  6
 12 13  1  0
 13 14  1  0
 14 15  1  0
 16 15  1  1
 10 17  1  0
 16 17  1  0
 16 18  1  0
 18 19  1  0
 19 20  2  0
 19 21  1  0
 22 21  1  0
 22 23  1  0
 22 24  1  0
 22 25  1  0
 12 26  1  0
 18 26  1  0
  7 27  1  0
  4 28  1  0
 27 28  1  0
M  END
