piperidine-amides-11222-covalent
     RDKit          3D

 19 20  0  0  0  0  0  0  0  0999 V2000
    7.1150   -3.2600   19.1750 C   0  0  0  0  0  0  0  0  0  0  0  0
    6.3390   -3.9650   20.1980 C   0  0  0  0  0  0  0  0  0  0  0  0
    5.2910   -4.5460   19.8800 O   0  0  0  0  0  0  0  0  0  0  0  0
    6.7850   -4.0360   21.5240 N   0  0  0  0  0  0  0  0  0  0  0  0
    7.6310   -3.0060   22.0780 C   0  0  0  0  0  0  0  0  0  0  0  0
    6.8300   -2.4160   23.2040 C   0  0  0  0  0  0  0  0  0  0  0  0
    6.3230   -3.4870   24.1210 C   0  0  0  0  0  0  0  0  0  0  0  0
    5.5550   -2.9560   25.2840 C   0  0  0  0  0  0  0  0  0  0  0  0
    4.2880   -2.9710   25.2760 O   0  0  0  0  0  0  0  0  0  0  0  0
    6.1770   -2.4270   26.4490 N   0  0  0  0  0  0  0  0  0  0  0  0
    6.8260   -3.3420   27.4060 C   0  0  0  0  0  0  0  0  0  0  0  0
    7.5190   -4.2990   26.5540 C   0  0  0  0  0  0  0  0  0  0  0  0
    7.3370   -4.3900   25.2440 N   0  0  0  0  0  0  0  0  0  0  0  0
    8.1600   -5.4140   24.7120 C   0  0  0  0  0  0  0  0  0  0  0  0
    8.8540   -5.9420   25.7310 N   0  0  0  0  0  0  0  0  0  0  0  0
    8.5040   -5.3260   26.8490 C   0  0  0  0  0  0  0  0  0  0  0  0
    8.9090   -5.4870   28.2560 C   0  0  0  0  0  0  0  0  0  0  0  0
    5.4810   -4.4720   23.3580 C   0  0  0  0  0  0  0  0  0  0  0  0
    6.1970   -5.0520   22.3360 C   0  0  0  0  0  0  0  0  0  0  0  0
  1  2  1  0
  2  3  2  0
  2  4  1  0
  4  5  1  0
  5  6  1  0
  6  7  1  0
  7  8  1  0
  8  9  2  0
  8 10  1  0
 10 11  1  0
 11 12  1  0
 12 13  1  0
 13 14  2  0
 14 15  1  0
 12 16  2  0
 15 16  1  0
 16 17  1  0
  7 18  1  0
  4 19  1  0
 18 19  1  0
M  END
