piperidine-amides-27091-covalent
     RDKit          3D

 26 29  0  0  0  0  0  0  0  0999 V2000
    7.0870   -3.3510   19.3460 C   0  0  0  0  0  0  0  0  0  0  0  0
    6.3660   -4.1600   20.3240 C   0  0  0  0  0  0  0  0  0  0  0  0
    5.2910   -4.6790   19.9320 O   0  0  0  0  0  0  0  0  0  0  0  0
    6.9070   -4.3770   21.5920 N   0  0  0  0  0  0  0  0  0  0  0  0
    6.5750   -5.5560   22.3390 C   0  0  0  0  0  0  0  0  0  0  0  0
    5.6710   -5.1330   23.4620 C   0  0  0  0  0  0  0  0  0  0  0  0
    6.2680   -4.0290   24.3040 C   0  0  0  0  0  0  0  0  0  0  0  0
    5.2780   -3.5550   25.3110 C   0  0  0  0  0  0  0  0  0  0  0  0
    4.2890   -2.9190   24.9040 O   0  0  0  0  0  0  0  0  0  0  0  0
    5.4020   -3.7710   26.7000 N   0  0  0  0  0  0  0  0  0  0  0  0
    4.3570   -4.1810   27.5890 C   0  0  0  0  0  0  0  0  0  0  0  0
    4.8300   -3.9340   29.0250 C   0  0  0  0  0  0  0  0  0  0  0  0
    5.4790   -2.7670   29.3310 C   0  0  0  0  0  0  0  0  0  0  0  0
    5.5850   -1.7050   30.1920 N   0  0  0  0  0  0  0  0  0  0  0  0
    6.5550   -0.8160   29.8040 N   0  0  0  0  0  0  0  0  0  0  0  0
    6.9100    0.3430   30.4170 C   0  0  0  0  0  0  0  0  0  0  0  0
    7.6430    0.1170   31.5670 C   0  0  0  0  0  0  0  0  0  0  0  0
    8.0850    1.1970   32.3100 C   0  0  0  0  0  0  0  0  0  0  0  0
    7.8140    2.4930   31.9320 C   0  0  0  0  0  0  0  0  0  0  0  0
    7.0260    2.8530   30.7010 C   0  0  0  0  0  0  0  0  0  0  0  0
    6.5800    1.6030   29.9460 C   0  0  0  0  0  0  0  0  0  0  0  0
    7.1480   -1.3040   28.6150 C   0  0  0  0  0  0  0  0  0  0  0  0
    6.4490   -2.5810   28.2960 C   0  0  0  0  0  0  0  0  0  0  0  0
    6.5750   -3.4500   27.3130 C   0  0  0  0  0  0  0  0  0  0  0  0
    6.6990   -2.8670   23.4170 C   0  0  0  0  0  0  0  0  0  0  0  0
    7.6320   -3.3530   22.3200 C   0  0  0  0  0  0  0  0  0  0  0  0
  1  2  1  0
  2  3  2  0
  2  4  1  0
  4  5  1  0
  5  6  1  0
  6  7  1  0
  7  8  1  0
  8  9  2  0
  8 10  1  0
 10 11  1  0
 11 12  1  0
 12 13  1  0
 13 14  2  0
 14 15  1  0
 15 16  1  0
 16 17  2  0
 17 18  1  0
 18 19  2  0
 19 20  1  0
 16 21  1  0
 20 21  2  0
 15 22  1  0
 13 23  1  0
 22 23  2  0
 10 24  1  0
 23 24  1  0
  7 25  1  0
  4 26  1  0
 25 26  1  0
M  END
