piperidine-amides-25632-covalent
     RDKit          3D

 25 27  0  0  0  0  0  0  0  0999 V2000
    7.0350   -3.3270   19.2550 C   0  0  0  0  0  0  0  0  0  0  0  0
    6.3250   -4.1600   20.2620 C   0  0  0  0  0  0  0  0  0  0  0  0
    5.2840   -4.7050   19.9210 O   0  0  0  0  0  0  0  0  0  0  0  0
    6.8750   -4.3370   21.5200 N   0  0  0  0  0  0  0  0  0  0  0  0
    6.6230   -5.5130   22.3070 C   0  0  0  0  0  0  0  0  0  0  0  0
    5.8200   -5.1420   23.5230 C   0  0  0  0  0  0  0  0  0  0  0  0
    5.8150   -3.6190   23.7270 C   0  0  0  0  0  0  0  0  0  0  0  0
    5.3580   -3.3350   25.0930 C   0  0  0  0  0  0  0  0  0  0  0  0
    4.4810   -2.4960   25.3170 O   0  0  0  0  0  0  0  0  0  0  0  0
    5.9410   -4.0510   26.1200 N   0  0  0  0  0  0  0  0  0  0  0  0
    5.3030   -4.5190   27.2110 C   0  0  0  0  0  0  0  0  0  0  0  0
    5.8220   -5.1740   28.5050 C   0  0  0  0  0  0  0  0  0  0  0  0
    7.1270   -5.5150   28.9010 C   0  0  0  0  0  0  0  0  0  0  0  0
    8.2350   -5.3000   28.1080 C   0  0  0  0  0  0  0  0  0  0  0  0
    7.9840   -4.7640   26.9190 C   0  0  0  0  0  0  0  0  0  0  0  0
    6.5560   -4.4750   26.6870 C   0  0  0  0  0  0  0  0  0  0  0  0
    7.2430   -4.9050   27.7750 C   0  0  0  0  0  0  0  0  0  0  0  0
    7.0460   -3.5110   27.0550 C   0  0  2  0  0  0  0  0  0  0  0  0
    6.5920   -2.7040   28.2390 C   0  0  0  0  0  0  0  0  0  0  0  0
    8.2120   -2.7260   26.5470 C   0  0  0  0  0  0  0  0  0  0  0  0
    8.6600   -1.7600   27.2350 O   0  0  0  0  0  0  0  0  0  0  0  0
    8.8640   -2.8760   25.4870 O   0  0  0  0  0  0  0  0  0  0  0  0
    8.8060   -1.8280   24.4980 C   0  0  0  0  0  0  0  0  0  0  0  0
    7.2140   -3.0970   23.5610 C   0  0  0  0  0  0  0  0  0  0  0  0
    7.6160   -3.2660   22.1370 C   0  0  0  0  0  0  0  0  0  0  0  0
  1  2  1  0
  2  3  2  0
  2  4  1  0
  4  5  1  0
  5  6  1  0
  6  7  1  0
  7  8  1  0
  8  9  2  0
  8 10  1  0
 10 11  1  0
 11 12  2  0
 12 13  1  0
 13 14  2  0
 14 15  1  0
 11 16  1  0
 15 16  2  0
 16 17  1  0
 10 18  1  0
 17 18  1  0
 18 19  1  1
 18 20  1  0
 20 21  2  0
 20 22  1  0
 22 23  1  0
  7 24  1  0
  4 25  1  0
 24 25  1  0
M  END
