piperidine-amides-11862-covalent
     RDKit          3D

 26 27  0  0  0  0  0  0  0  0999 V2000
    7.1680   -3.2930   19.2410 C   0  0  0  0  0  0  0  0  0  0  0  0
    6.3820   -4.0400   20.2090 C   0  0  0  0  0  0  0  0  0  0  0  0
    5.3040   -4.5420   19.8880 O   0  0  0  0  0  0  0  0  0  0  0  0
    6.9100   -4.2400   21.5220 N   0  0  0  0  0  0  0  0  0  0  0  0
    6.5780   -5.4400   22.2440 C   0  0  0  0  0  0  0  0  0  0  0  0
    5.9050   -5.0520   23.5240 C   0  0  0  0  0  0  0  0  0  0  0  0
    5.8470   -3.5340   23.5310 C   0  0  0  0  0  0  0  0  0  0  0  0
    5.1120   -3.0740   24.7270 C   0  0  0  0  0  0  0  0  0  0  0  0
    3.9030   -2.7880   24.7150 O   0  0  0  0  0  0  0  0  0  0  0  0
    5.8050   -2.9610   25.9280 N   0  0  0  0  0  0  0  0  0  0  0  0
    5.4250   -3.8580   26.9760 C   0  0  2  0  0  0  0  0  0  0  0  0
    6.7040   -4.3730   27.3870 C   0  0  0  0  0  0  0  0  0  0  0  0
    7.0980   -5.6180   26.9320 C   0  0  0  0  0  0  0  0  0  0  0  0
    8.3110   -6.1540   27.2980 C   0  0  0  0  0  0  0  0  0  0  0  0
    9.0710   -5.4420   28.1030 C   0  0  0  0  0  0  0  0  0  0  0  0
    8.6300   -4.1610   28.5470 C   0  0  0  0  0  0  0  0  0  0  0  0
    7.4710   -3.6100   28.2020 C   0  0  0  0  0  0  0  0  0  0  0  0
    7.0560   -2.3460   28.6260 C   0  0  0  0  0  0  0  0  0  0  0  0
    8.0630   -1.6780   29.2460 F   0  0  0  0  0  0  0  0  0  0  0  0
    6.0040   -2.4650   29.5010 F   0  0  0  0  0  0  0  0  0  0  0  0
    6.5810   -1.5980   27.5530 F   0  0  0  0  0  0  0  0  0  0  0  0
    4.4750   -4.8160   26.8760 C   0  0  0  0  0  0  0  0  0  0  0  0
    4.7900   -5.7690   25.8840 F   0  0  0  0  0  0  0  0  0  0  0  0
    4.4580   -5.5600   28.0620 F   0  0  0  0  0  0  0  0  0  0  0  0
    7.1190   -2.8610   23.3670 C   0  0  0  0  0  0  0  0  0  0  0  0
    7.7160   -3.2360   22.1840 C   0  0  0  0  0  0  0  0  0  0  0  0
  1  2  1  0
  2  3  2  0
  2  4  1  0
  4  5  1  0
  5  6  1  0
  6  7  1  0
  7  8  1  0
  8  9  2  0
  8 10  1  0
 11 10  1  6
 11 12  1  0
 12 13  2  0
 13 14  1  0
 14 15  2  0
 15 16  1  0
 12 17  1  0
 16 17  2  0
 17 18  1  0
 18 19  1  0
 18 20  1  0
 18 21  1  0
 11 22  1  0
 22 23  1  0
 22 24  1  0
  7 25  1  0
  4 26  1  0
 25 26  1  0
M  END
