piperidine-amides-24930-covalent
     RDKit          3D

 22 24  0  0  0  0  0  0  0  0999 V2000
    7.0580   -3.3380   19.3460 C   0  0  0  0  0  0  0  0  0  0  0  0
    6.3980   -4.1950   20.3430 C   0  0  0  0  0  0  0  0  0  0  0  0
    5.4120   -4.8850   19.9990 O   0  0  0  0  0  0  0  0  0  0  0  0
    6.8880   -4.2820   21.6640 N   0  0  0  0  0  0  0  0  0  0  0  0
    6.6530   -5.5010   22.4240 C   0  0  0  0  0  0  0  0  0  0  0  0
    6.1910   -5.1230   23.8540 C   0  0  0  0  0  0  0  0  0  0  0  0
    6.1510   -3.6130   23.9210 C   0  0  0  0  0  0  0  0  0  0  0  0
    5.5370   -3.1160   25.1850 C   0  0  0  0  0  0  0  0  0  0  0  0
    4.3360   -2.7950   25.1040 O   0  0  0  0  0  0  0  0  0  0  0  0
    6.1780   -3.0030   26.4540 N   0  0  0  0  0  0  0  0  0  0  0  0
    7.5780   -2.7560   26.6470 C   0  0  0  0  0  0  0  0  0  0  0  0
    8.0040   -3.9580   27.4090 C   0  0  0  0  0  0  0  0  0  0  0  0
    6.9010   -5.1410   27.7500 S   0  0  0  0  0  0  0  0  0  0  0  0
    5.5060   -4.5150   28.6390 C   0  0  0  0  0  0  0  0  0  0  0  0
    6.0120   -5.5490   29.1190 C   0  0  0  0  0  0  0  0  0  0  0  0
    7.0100   -6.2140   28.7460 C   0  0  0  0  0  0  0  0  0  0  0  0
    7.5450   -5.5970   27.6450 C   0  0  0  0  0  0  0  0  0  0  0  0
    8.9990   -6.2190   26.8770 Cl  0  0  0  0  0  0  0  0  0  0  0  0
    6.9400   -4.2700   26.9480 C   0  0  0  0  0  0  0  0  0  0  0  0
    5.6130   -3.6160   27.6490 C   0  0  0  0  0  0  0  0  0  0  0  0
    7.4310   -2.9850   23.6000 C   0  0  0  0  0  0  0  0  0  0  0  0
    7.7330   -3.2560   22.2020 C   0  0  0  0  0  0  0  0  0  0  0  0
  1  2  1  0
  2  3  2  0
  2  4  1  0
  4  5  1  0
  5  6  1  0
  6  7  1  0
  7  8  1  0
  8  9  2  0
  8 10  1  0
 10 11  1  0
 11 12  1  0
 12 13  1  0
 13 14  1  0
 14 15  2  0
 15 16  1  0
 16 17  2  0
 17 18  1  0
 17 19  1  0
 10 20  1  0
 14 20  1  0
 19 20  2  0
  7 21  1  0
  4 22  1  0
 21 22  1  0
M  END
