piperidine-amides-6956-covalent
     RDKit          3D

 23 24  0  0  0  0  0  0  0  0999 V2000
    7.1220   -3.3420   19.3510 C   0  0  0  0  0  0  0  0  0  0  0  0
    6.3980   -4.1710   20.3190 C   0  0  0  0  0  0  0  0  0  0  0  0
    5.3650   -4.7890   19.9740 O   0  0  0  0  0  0  0  0  0  0  0  0
    6.8990   -4.3160   21.6190 N   0  0  0  0  0  0  0  0  0  0  0  0
    7.7470   -3.2840   22.1810 C   0  0  0  0  0  0  0  0  0  0  0  0
    6.9300   -2.6430   23.2910 C   0  0  0  0  0  0  0  0  0  0  0  0
    6.5140   -3.7850   24.1810 C   0  0  0  0  0  0  0  0  0  0  0  0
    5.7700   -3.2520   25.3340 C   0  0  0  0  0  0  0  0  0  0  0  0
    4.5630   -2.9680   25.1940 O   0  0  0  0  0  0  0  0  0  0  0  0
    6.4420   -3.0860   26.5590 N   0  0  0  0  0  0  0  0  0  0  0  0
    6.4460   -1.8240   27.2480 C   0  0  0  0  0  0  0  0  0  0  0  0
    5.9000   -0.5740   26.5890 C   0  0  0  0  0  0  0  0  0  0  0  0
    5.8730    0.6490   27.1950 C   0  0  0  0  0  0  0  0  0  0  0  0
    6.3550    0.7830   28.4610 C   0  0  0  0  0  0  0  0  0  0  0  0
    6.3650    1.9800   29.1650 O   0  0  0  0  0  0  0  0  0  0  0  0
    5.1250    2.6290   29.3690 C   0  0  0  0  0  0  0  0  0  0  0  0
    4.3700    1.6990   30.0470 C   0  0  0  0  0  0  0  0  0  0  0  0
    5.0280    3.8810   30.2510 C   0  0  0  0  0  0  0  0  0  0  0  0
    6.8750   -0.2520   29.1690 C   0  0  0  0  0  0  0  0  0  0  0  0
    7.4460    0.1200   30.8030 Cl  0  0  0  0  0  0  0  0  0  0  0  0
    6.9800   -1.6510   28.6480 C   0  0  0  0  0  0  0  0  0  0  0  0
    5.6690   -4.7930   23.4290 C   0  0  0  0  0  0  0  0  0  0  0  0
    6.4890   -5.4040   22.4680 C   0  0  0  0  0  0  0  0  0  0  0  0
  1  2  1  0
  2  3  2  0
  2  4  1  0
  4  5  1  0
  5  6  1  0
  6  7  1  0
  7  8  1  0
  8  9  2  0
  8 10  1  0
 10 11  1  0
 11 12  2  0
 12 13  1  0
 13 14  2  0
 14 15  1  0
 15 16  1  0
 16 17  1  0
 16 18  1  0
 14 19  1  0
 19 20  1  0
 11 21  1  0
 19 21  2  0
  7 22  1  0
  4 23  1  0
 22 23  1  0
M  END
