piperidine-amides-451-covalent
     RDKit          3D

 27 29  0  0  0  0  0  0  0  0999 V2000
    7.1810   -3.2650   19.2840 C   0  0  0  0  0  0  0  0  0  0  0  0
    6.3960   -4.0290   20.2310 C   0  0  0  0  0  0  0  0  0  0  0  0
    5.2880   -4.5240   19.8660 O   0  0  0  0  0  0  0  0  0  0  0  0
    6.8510   -4.2800   21.5310 N   0  0  0  0  0  0  0  0  0  0  0  0
    7.6990   -3.2360   22.1540 C   0  0  0  0  0  0  0  0  0  0  0  0
    6.6530   -2.5810   23.1270 C   0  0  0  0  0  0  0  0  0  0  0  0
    6.2600   -3.7440   23.9910 C   0  0  0  0  0  0  0  0  0  0  0  0
    5.6550   -3.3070   25.3830 C   0  0  0  0  0  0  0  0  0  0  0  0
    4.6400   -2.6260   25.3030 O   0  0  0  0  0  0  0  0  0  0  0  0
    6.4560   -3.8300   26.1870 N   0  0  0  0  0  0  0  0  0  0  0  0
    7.3980   -4.4540   26.9000 C   0  0  0  0  0  0  0  0  0  0  0  0
    8.6960   -4.8060   26.8370 C   0  0  0  0  0  0  0  0  0  0  0  0
    9.0220   -5.8730   26.0080 C   0  0  0  0  0  0  0  0  0  0  0  0
    9.3140   -5.1870   28.1460 C   0  0  0  0  0  0  0  0  0  0  0  0
    9.6620   -3.9580   26.0000 C   0  0  0  0  0  0  0  0  0  0  0  0
   10.9250   -4.3500   25.6490 C   0  0  0  0  0  0  0  0  0  0  0  0
   11.5700   -3.5460   24.9770 O   0  0  0  0  0  0  0  0  0  0  0  0
   10.8020   -2.4480   24.7620 C   0  0  0  0  0  0  0  0  0  0  0  0
   11.1710   -1.1930   23.9960 C   0  0  0  0  0  0  0  0  0  0  0  0
   12.6500   -0.7710   23.7570 C   0  0  0  0  0  0  0  0  0  0  0  0
   12.9420    0.3720   23.0880 C   0  0  0  0  0  0  0  0  0  0  0  0
   11.9370    1.1490   22.6280 C   0  0  0  0  0  0  0  0  0  0  0  0
   10.6310    0.8140   22.8010 C   0  0  0  0  0  0  0  0  0  0  0  0
   10.2330   -0.3290   23.4660 C   0  0  0  0  0  0  0  0  0  0  0  0
    9.6180   -2.6500   25.3690 N   0  0  0  0  0  0  0  0  0  0  0  0
    5.5370   -4.8780   23.3630 C   0  0  0  0  0  0  0  0  0  0  0  0
    6.3700   -5.4340   22.2520 C   0  0  0  0  0  0  0  0  0  0  0  0
  1  2  1  0
  2  3  2  0
  2  4  1  0
  4  5  1  0
  5  6  1  0
  6  7  1  0
  7  8  1  0
  8  9  2  0
  8 10  1  0
 10 11  1  0
 12 11  1  0
 12 13  1  0
 12 14  1  0
 12 15  1  0
 15 16  2  0
 16 17  1  0
 17 18  1  0
 18 19  1  0
 19 20  2  0
 20 21  1  0
 21 22  2  0
 22 23  1  0
 19 24  1  0
 23 24  2  0
 15 25  1  0
 18 25  2  0
  7 26  1  0
  4 27  1  0
 26 27  1  0
M  END
