piperidine-amides-31855-covalent
     RDKit          3D

 28 30  0  0  0  0  0  0  0  0999 V2000
    7.0270   -3.4270   19.4050 C   0  0  0  0  0  0  0  0  0  0  0  0
    6.3580   -4.2080   20.4200 C   0  0  0  0  0  0  0  0  0  0  0  0
    5.4070   -4.9460   20.0130 O   0  0  0  0  0  0  0  0  0  0  0  0
    6.7330   -4.2280   21.7880 N   0  0  0  0  0  0  0  0  0  0  0  0
    6.5770   -5.4870   22.5310 C   0  0  0  0  0  0  0  0  0  0  0  0
    5.5470   -4.9900   23.6180 C   0  0  0  0  0  0  0  0  0  0  0  0
    6.1580   -3.8060   24.3660 C   0  0  0  0  0  0  0  0  0  0  0  0
    5.0050   -3.1460   25.2970 C   0  0  0  0  0  0  0  0  0  0  0  0
    4.0940   -2.7870   24.5830 O   0  0  0  0  0  0  0  0  0  0  0  0
    5.2600   -3.1310   26.5700 N   0  0  0  0  0  0  0  0  0  0  0  0
    5.2840   -2.7760   27.8850 C   0  0  0  0  0  0  0  0  0  0  0  0
    5.8540   -3.3080   29.0210 C   0  0  0  0  0  0  0  0  0  0  0  0
    5.8540   -4.7190   28.9800 C   0  0  0  0  0  0  0  0  0  0  0  0
    5.0260   -5.3280   29.8370 N   0  0  0  0  0  0  0  0  0  0  0  0
    4.0040   -4.5700   30.3730 N   0  0  0  0  0  0  0  0  0  0  0  0
    3.2570   -5.3460   31.2270 C   0  0  0  0  0  0  0  0  0  0  0  0
    3.9270   -6.6790   31.1630 C   0  0  0  0  0  0  0  0  0  0  0  0
    3.2800   -7.6120   31.9910 C   0  0  0  0  0  0  0  0  0  0  0  0
    2.1820   -8.1190   31.6750 O   0  0  0  0  0  0  0  0  0  0  0  0
    3.8510   -7.9990   33.2220 O   0  0  0  0  0  0  0  0  0  0  0  0
    5.1320   -8.4810   33.4020 C   0  0  0  0  0  0  0  0  0  0  0  0
    5.8360   -7.3330   34.1190 C   0  0  0  0  0  0  0  0  0  0  0  0
    5.0670   -6.6220   30.2500 C   0  0  0  0  0  0  0  0  0  0  0  0
    5.9850   -7.5500   29.8470 C   0  0  0  0  0  0  0  0  0  0  0  0
    5.7540   -5.1940   27.6240 C   0  0  0  0  0  0  0  0  0  0  0  0
    6.0860   -4.2530   26.7030 C   0  0  0  0  0  0  0  0  0  0  0  0
    6.9700   -2.7840   23.5910 C   0  0  0  0  0  0  0  0  0  0  0  0
    7.5700   -3.2420   22.4060 C   0  0  0  0  0  0  0  0  0  0  0  0
  1  2  1  0
  2  3  2  0
  2  4  1  0
  4  5  1  0
  5  6  1  0
  6  7  1  0
  7  8  1  0
  8  9  2  0
  8 10  1  0
 10 11  1  0
 11 12  1  0
 12 13  1  0
 13 14  1  0
 14 15  1  0
 15 16  2  0
 16 17  1  0
 17 18  1  0
 18 19  2  0
 18 20  1  0
 20 21  1  0
 21 22  1  0
 14 23  1  0
 17 23  2  0
 23 24  1  0
 13 25  1  0
 10 26  1  0
 25 26  1  0
  7 27  1  0
  4 28  1  0
 27 28  1  0
M  END
