piperidine-amides-24124-covalent
     RDKit          3D

 24 26  0  0  0  0  0  0  0  0999 V2000
    7.1480   -3.3440   19.3260 C   0  0  0  0  0  0  0  0  0  0  0  0
    6.4810   -4.2080   20.3090 C   0  0  0  0  0  0  0  0  0  0  0  0
    5.3890   -4.7200   19.9590 O   0  0  0  0  0  0  0  0  0  0  0  0
    7.0870   -4.5090   21.5550 N   0  0  0  0  0  0  0  0  0  0  0  0
    6.5350   -5.5410   22.3360 C   0  0  0  0  0  0  0  0  0  0  0  0
    5.9830   -5.0830   23.6080 C   0  0  0  0  0  0  0  0  0  0  0  0
    6.5920   -3.8750   24.2310 C   0  0  0  0  0  0  0  0  0  0  0  0
    5.6310   -3.2390   25.1790 C   0  0  0  0  0  0  0  0  0  0  0  0
    4.8510   -2.3680   24.7670 O   0  0  0  0  0  0  0  0  0  0  0  0
    5.5560   -3.6060   26.5160 N   0  0  0  0  0  0  0  0  0  0  0  0
    5.4580   -2.7000   27.5880 C   0  0  0  0  0  0  0  0  0  0  0  0
    5.1350   -3.1750   28.9270 C   0  0  0  0  0  0  0  0  0  0  0  0
    5.5680   -4.6470   29.0900 C   0  0  0  0  0  0  0  0  0  0  0  0
    5.5240   -5.3650   27.9610 C   0  0  2  0  0  0  0  0  0  0  0  0
    6.9120   -4.9630   27.9790 C   0  0  0  0  0  0  0  0  0  0  0  0
    7.3660   -3.7050   28.5210 N   0  0  0  0  0  0  0  0  0  0  0  0
    8.6700   -3.7440   28.2990 N   0  0  0  0  0  0  0  0  0  0  0  0
    8.6700   -4.9420   27.7150 C   0  0  0  0  0  0  0  0  0  0  0  0
    9.9300   -5.3830   27.2700 C   0  0  0  0  0  0  0  0  0  0  0  0
   10.0150   -5.5270   25.8250 C   0  0  0  0  0  0  0  0  0  0  0  0
    7.7220   -5.8270   27.4400 O   0  0  0  0  0  0  0  0  0  0  0  0
    5.0470   -4.8760   26.8200 C   0  0  0  0  0  0  0  0  0  0  0  0
    6.9930   -2.7890   23.2200 C   0  0  0  0  0  0  0  0  0  0  0  0
    7.8440   -3.4250   22.1990 C   0  0  0  0  0  0  0  0  0  0  0  0
  1  2  1  0
  2  3  2  0
  2  4  1  0
  4  5  1  0
  5  6  1  0
  6  7  1  0
  7  8  1  0
  8  9  2  0
  8 10  1  0
 10 11  1  0
 11 12  1  0
 12 13  1  0
 13 14  1  0
 14 15  1  6
 15 16  2  0
 16 17  1  0
 17 18  2  0
 18 19  1  0
 19 20  1  0
 15 21  1  0
 18 21  1  0
 10 22  1  0
 14 22  1  0
  7 23  1  0
  4 24  1  0
 23 24  1  0
M  END
