piperidine-amides-24253-covalent
     RDKit          3D

 23 25  0  0  0  0  0  0  0  0999 V2000
    7.1290   -3.3490   19.3410 C   0  0  0  0  0  0  0  0  0  0  0  0
    6.4180   -4.1920   20.3050 C   0  0  0  0  0  0  0  0  0  0  0  0
    5.3760   -4.8000   19.9720 O   0  0  0  0  0  0  0  0  0  0  0  0
    6.9430   -4.3700   21.5860 N   0  0  0  0  0  0  0  0  0  0  0  0
    6.6660   -5.6150   22.2690 C   0  0  0  0  0  0  0  0  0  0  0  0
    6.1750   -5.2370   23.6710 C   0  0  0  0  0  0  0  0  0  0  0  0
    6.0430   -3.7300   23.6520 C   0  0  0  0  0  0  0  0  0  0  0  0
    5.4420   -3.2360   24.8840 C   0  0  0  0  0  0  0  0  0  0  0  0
    4.5750   -2.3470   24.8240 O   0  0  0  0  0  0  0  0  0  0  0  0
    5.8460   -3.7700   26.0930 N   0  0  0  0  0  0  0  0  0  0  0  0
    6.4150   -2.8510   27.0580 C   0  0  0  0  0  0  0  0  0  0  0  0
    6.7130   -3.4770   28.4140 C   0  0  0  0  0  0  0  0  0  0  0  0
    5.6510   -3.7400   29.1820 C   0  0  0  0  0  0  0  0  0  0  0  0
    4.6010   -3.9970   28.3970 C   0  0  0  0  0  0  0  0  0  0  0  0
    5.2650   -4.3640   27.2920 C   0  0  0  0  0  0  0  0  0  0  0  0
    5.2100   -5.6840   27.8040 C   0  0  0  0  0  0  0  0  0  0  0  0
    4.3280   -4.7880   29.0420 Cl  0  0  0  0  0  0  0  0  0  0  0  0
    4.7910   -6.6480   28.8480 C   0  0  0  0  0  0  0  0  0  0  0  0
    4.6440   -5.2070   28.6470 C   0  0  0  0  0  0  0  0  0  0  0  0
    5.4110   -6.1130   27.5820 C   0  0  0  0  0  0  0  0  0  0  0  0
    5.8310   -5.1380   26.5230 C   0  0  0  0  0  0  0  0  0  0  0  0
    7.3990   -3.1310   23.4770 C   0  0  0  0  0  0  0  0  0  0  0  0
    7.7120   -3.3100   22.1720 C   0  0  0  0  0  0  0  0  0  0  0  0
  1  2  1  0
  2  3  2  0
  2  4  1  0
  4  5  1  0
  5  6  1  0
  6  7  1  0
  7  8  1  0
  8  9  2  0
  8 10  1  0
 10 11  1  0
 11 12  1  0
 12 13  1  0
 13 14  1  0
 14 15  1  0
 15 16  1  0
 16 17  1  0
 16 18  2  0
 18 19  1  0
 19 20  2  0
 10 21  1  0
 15 21  2  0
 20 21  1  0
  7 22  1  0
  4 23  1  0
 22 23  1  0
M  END
