piperidine-amides-32315-covalent
     RDKit          3D

 24 25  0  0  0  0  0  0  0  0999 V2000
    7.0620   -3.3030   19.3370 C   0  0  0  0  0  0  0  0  0  0  0  0
    6.3370   -4.1360   20.3380 C   0  0  0  0  0  0  0  0  0  0  0  0
    5.3390   -4.7720   19.9620 O   0  0  0  0  0  0  0  0  0  0  0  0
    6.8090   -4.2280   21.6750 N   0  0  0  0  0  0  0  0  0  0  0  0
    6.7010   -5.4720   22.4200 C   0  0  0  0  0  0  0  0  0  0  0  0
    6.2490   -5.1870   23.8680 C   0  0  0  0  0  0  0  0  0  0  0  0
    6.1320   -3.7170   24.0250 C   0  0  0  0  0  0  0  0  0  0  0  0
    5.5620   -3.2390   25.3150 C   0  0  0  0  0  0  0  0  0  0  0  0
    4.3690   -2.9430   25.2470 O   0  0  0  0  0  0  0  0  0  0  0  0
    6.2860   -3.0900   26.5180 N   0  0  0  0  0  0  0  0  0  0  0  0
    6.6760   -1.7850   26.9190 C   0  0  0  0  0  0  0  0  0  0  0  0
    6.8820   -1.4320   28.2340 C   0  0  0  0  0  0  0  0  0  0  0  0
    6.1310   -3.8080   27.7600 C   0  0  0  0  0  0  0  0  0  0  0  0
    5.4140   -4.9880   27.7600 C   0  0  2  0  0  0  0  0  0  0  0  0
    6.1190   -6.2600   27.5160 C   0  0  0  0  0  0  0  0  0  0  0  0
    4.2540   -5.0260   26.9980 C   0  0  0  0  0  0  0  0  0  0  0  0
    3.3050   -3.8660   26.9400 C   0  0  0  0  0  0  0  0  0  0  0  0
    2.1750   -3.9470   26.1780 C   0  0  0  0  0  0  0  0  0  0  0  0
    1.7460   -5.1160   25.3530 C   0  0  0  0  0  0  0  0  0  0  0  0
    2.7720   -6.2720   25.4660 C   0  0  0  0  0  0  0  0  0  0  0  0
    2.3720   -7.8480   24.4770 Br  0  0  0  0  0  0  0  0  0  0  0  0
    3.9320   -6.2270   26.2270 C   0  0  0  0  0  0  0  0  0  0  0  0
    7.3760   -2.9720   23.6870 C   0  0  0  0  0  0  0  0  0  0  0  0
    7.6830   -3.1850   22.2230 C   0  0  0  0  0  0  0  0  0  0  0  0
  1  2  1  0
  2  3  2  0
  2  4  1  0
  4  5  1  0
  5  6  1  0
  6  7  1  0
  7  8  1  0
  8  9  2  0
  8 10  1  0
 10 11  1  0
 11 12  1  0
 10 13  1  0
 13 14  1  0
 14 15  1  6
 14 16  1  0
 16 17  2  0
 17 18  1  0
 18 19  2  0
 19 20  1  0
 20 21  1  0
 16 22  1  0
 20 22  2  0
  7 23  1  0
  4 24  1  0
 23 24  1  0
M  END
