piperidine-amides-28938-covalent
     RDKit          3D

 27 29  0  0  0  0  0  0  0  0999 V2000
    7.0390   -3.2470   19.1810 C   0  0  0  0  0  0  0  0  0  0  0  0
    6.3060   -4.0280   20.1840 C   0  0  0  0  0  0  0  0  0  0  0  0
    5.2360   -4.5580   19.8610 O   0  0  0  0  0  0  0  0  0  0  0  0
    6.8280   -4.2090   21.4760 N   0  0  0  0  0  0  0  0  0  0  0  0
    6.5510   -5.4270   22.1700 C   0  0  0  0  0  0  0  0  0  0  0  0
    5.8840   -5.1380   23.4880 C   0  0  0  0  0  0  0  0  0  0  0  0
    5.9040   -3.6340   23.7300 C   0  0  0  0  0  0  0  0  0  0  0  0
    5.4130   -3.2900   25.1040 C   0  0  0  0  0  0  0  0  0  0  0  0
    4.1960   -3.3010   25.2620 O   0  0  0  0  0  0  0  0  0  0  0  0
    6.3330   -2.9790   26.1080 N   0  0  0  0  0  0  0  0  0  0  0  0
    5.9680   -3.1830   27.4820 C   0  0  0  0  0  0  0  0  0  0  0  0
    6.3420   -4.4290   27.9760 C   0  0  0  0  0  0  0  0  0  0  0  0
    7.4590   -4.8140   27.3700 C   0  0  0  0  0  0  0  0  0  0  0  0
    8.6180   -4.7890   28.0820 C   0  0  0  0  0  0  0  0  0  0  0  0
    9.8650   -5.1720   27.4040 C   0  0  0  0  0  0  0  0  0  0  0  0
    9.8940   -5.6070   25.9310 C   0  0  0  0  0  0  0  0  0  0  0  0
    8.5970   -5.6130   25.2620 C   0  0  0  0  0  0  0  0  0  0  0  0
    7.4380   -5.1990   26.0670 C   0  0  0  0  0  0  0  0  0  0  0  0
    7.2490   -1.8550   25.8460 C   0  0  0  0  0  0  0  0  0  0  0  0
    8.5200   -2.1480   25.3250 C   0  0  0  0  0  0  0  0  0  0  0  0
    9.4350   -3.0550   25.8390 C   0  0  0  0  0  0  0  0  0  0  0  0
   10.7650   -3.2820   25.1950 C   0  0  0  0  0  0  0  0  0  0  0  0
   11.0590   -2.4970   23.9850 C   0  0  0  0  0  0  0  0  0  0  0  0
   10.0090   -1.5360   23.4950 C   0  0  0  0  0  0  0  0  0  0  0  0
    8.8370   -1.4310   24.1850 N   0  0  0  0  0  0  0  0  0  0  0  0
    7.2720   -3.0490   23.5040 C   0  0  0  0  0  0  0  0  0  0  0  0
    7.7400   -3.2920   22.0860 C   0  0  0  0  0  0  0  0  0  0  0  0
  1  2  1  0
  2  3  2  0
  2  4  1  0
  4  5  1  0
  5  6  1  0
  6  7  1  0
  7  8  1  0
  8  9  2  0
  8 10  1  0
 10 11  1  0
 11 12  1  0
 12 13  1  0
 13 14  2  0
 14 15  1  0
 15 16  2  0
 16 17  1  0
 13 18  1  0
 17 18  2  0
 10 19  1  0
 19 20  1  0
 20 21  2  0
 21 22  1  0
 22 23  2  0
 23 24  1  0
 20 25  1  0
 24 25  2  0
  7 26  1  0
  4 27  1  0
 26 27  1  0
M  END
