piperidine-amides-17049-covalent
     RDKit          3D

 20 21  0  0  0  0  0  0  0  0999 V2000
    7.0870   -3.2750   19.2750 C   0  0  0  0  0  0  0  0  0  0  0  0
    6.3950   -4.0840   20.2900 C   0  0  0  0  0  0  0  0  0  0  0  0
    5.3330   -4.6470   19.9290 O   0  0  0  0  0  0  0  0  0  0  0  0
    6.9310   -4.2680   21.5940 N   0  0  0  0  0  0  0  0  0  0  0  0
    6.5330   -5.4090   22.3340 C   0  0  0  0  0  0  0  0  0  0  0  0
    6.1130   -5.0710   23.6870 C   0  0  0  0  0  0  0  0  0  0  0  0
    6.0680   -3.6160   23.9610 C   0  0  0  0  0  0  0  0  0  0  0  0
    5.5890   -3.2960   25.3490 C   0  0  0  0  0  0  0  0  0  0  0  0
    4.3820   -3.4640   25.6080 O   0  0  0  0  0  0  0  0  0  0  0  0
    6.4280   -2.7890   26.3620 N   0  0  0  0  0  0  0  0  0  0  0  0
    6.9630   -1.4890   26.3630 C   0  0  0  0  0  0  0  0  0  0  0  0
    6.1770   -3.2620   27.7150 C   0  0  0  0  0  0  0  0  0  0  0  0
    5.4130   -4.5760   27.9230 C   0  0  0  0  0  0  0  0  0  0  0  0
    3.9450   -4.6260   27.9000 N   0  0  0  0  0  0  0  0  0  0  0  0
    3.6720   -6.0000   28.1330 O   0  0  0  0  0  0  0  0  0  0  0  0
    4.9340   -6.5860   28.2630 C   0  0  0  0  0  0  0  0  0  0  0  0
    4.9870   -7.7980   28.4740 O   0  0  0  0  0  0  0  0  0  0  0  0
    5.9620   -5.7620   28.1410 N   0  0  0  0  0  0  0  0  0  0  0  0
    7.4020   -3.0120   23.6070 C   0  0  0  0  0  0  0  0  0  0  0  0
    7.7680   -3.2530   22.1800 C   0  0  0  0  0  0  0  0  0  0  0  0
  1  2  1  0
  2  3  2  0
  2  4  1  0
  4  5  1  0
  5  6  1  0
  6  7  1  0
  7  8  1  0
  8  9  2  0
  8 10  1  0
 10 11  1  0
 10 12  1  0
 12 13  1  0
 13 14  2  0
 14 15  1  0
 15 16  1  0
 16 17  1  0
 13 18  1  0
 16 18  2  0
  7 19  1  0
  4 20  1  0
 19 20  1  0
M  END
