piperidine-amides-21590-covalent
     RDKit          3D

 23 24  0  0  0  0  0  0  0  0999 V2000
    7.0520   -3.2950   19.2900 C   0  0  0  0  0  0  0  0  0  0  0  0
    6.3610   -4.0880   20.3140 C   0  0  0  0  0  0  0  0  0  0  0  0
    5.3250   -4.6930   19.9350 O   0  0  0  0  0  0  0  0  0  0  0  0
    6.8590   -4.1920   21.6210 N   0  0  0  0  0  0  0  0  0  0  0  0
    6.6240   -5.3780   22.4070 C   0  0  0  0  0  0  0  0  0  0  0  0
    6.1340   -4.9100   23.7460 C   0  0  0  0  0  0  0  0  0  0  0  0
    5.8600   -3.4240   23.7230 C   0  0  0  0  0  0  0  0  0  0  0  0
    5.3120   -2.9440   25.0260 C   0  0  0  0  0  0  0  0  0  0  0  0
    4.0730   -2.8010   25.0940 O   0  0  0  0  0  0  0  0  0  0  0  0
    6.0510   -2.6340   26.1940 N   0  0  0  0  0  0  0  0  0  0  0  0
    6.8080   -1.4120   26.3100 C   0  0  0  0  0  0  0  0  0  0  0  0
    6.2070   -3.6550   27.1820 C   0  0  1  0  0  0  0  0  0  0  0  0
    5.1960   -4.5820   27.2180 C   0  0  0  0  0  0  0  0  0  0  0  0
    4.6280   -4.8600   28.4930 O   0  0  0  0  0  0  0  0  0  0  0  0
    7.4000   -4.4140   26.8640 C   0  0  0  0  0  0  0  0  0  0  0  0
    7.9130   -3.7390   25.7940 C   0  0  0  0  0  0  0  0  0  0  0  0
    9.0440   -4.1680   25.2210 C   0  0  0  0  0  0  0  0  0  0  0  0
    9.6650   -5.2590   25.7230 C   0  0  0  0  0  0  0  0  0  0  0  0
    9.1750   -6.0480   26.8680 C   0  0  0  0  0  0  0  0  0  0  0  0
    7.8890   -5.5080   27.4540 C   0  0  0  0  0  0  0  0  0  0  0  0
    7.1550   -6.1070   28.6130 C   0  0  0  0  0  0  0  0  0  0  0  0
    7.0720   -2.6110   23.3250 C   0  0  0  0  0  0  0  0  0  0  0  0
    7.7190   -3.1720   22.2400 C   0  0  0  0  0  0  0  0  0  0  0  0
  1  2  1  0
  2  3  2  0
  2  4  1  0
  4  5  1  0
  5  6  1  0
  6  7  1  0
  7  8  1  0
  8  9  2  0
  8 10  1  0
 10 11  1  0
 10 12  1  0
 12 13  1  6
 13 14  1  0
 12 15  1  0
 15 16  2  0
 16 17  1  0
 17 18  2  0
 18 19  1  0
 15 20  1  0
 19 20  2  0
 20 21  1  0
  7 22  1  0
  4 23  1  0
 22 23  1  0
M  END
