piperidine-amides-3138-covalent
     RDKit          3D

 23 24  0  0  0  0  0  0  0  0999 V2000
    7.0220   -3.3410   19.3470 C   0  0  0  0  0  0  0  0  0  0  0  0
    6.3420   -4.1540   20.3500 C   0  0  0  0  0  0  0  0  0  0  0  0
    5.4050   -4.8730   19.9950 O   0  0  0  0  0  0  0  0  0  0  0  0
    6.7740   -4.1640   21.7280 N   0  0  0  0  0  0  0  0  0  0  0  0
    7.6610   -3.1250   22.2140 C   0  0  0  0  0  0  0  0  0  0  0  0
    7.4700   -2.9110   23.6880 C   0  0  0  0  0  0  0  0  0  0  0  0
    6.1380   -3.5440   24.0300 C   0  0  0  0  0  0  0  0  0  0  0  0
    5.6050   -3.1710   25.3890 C   0  0  0  0  0  0  0  0  0  0  0  0
    4.3760   -3.1320   25.5870 O   0  0  0  0  0  0  0  0  0  0  0  0
    6.4620   -2.8660   26.4950 N   0  0  0  0  0  0  0  0  0  0  0  0
    6.7070   -1.4810   26.9060 C   0  0  1  0  0  0  0  0  0  0  0  0
    5.7980   -0.5880   26.1210 C   0  0  0  0  0  0  0  0  0  0  0  0
    5.4550    0.5790   26.7290 C   0  0  0  0  0  0  0  0  0  0  0  0
    5.1580    0.5430   28.0800 C   0  0  0  0  0  0  0  0  0  0  0  0
    6.1220   -0.0070   28.9290 N   0  0  0  0  0  0  0  0  0  0  0  0
    6.7200    0.8040   29.9060 C   0  0  0  0  0  0  0  0  0  0  0  0
    7.2700    0.1930   31.0960 C   0  0  0  0  0  0  0  0  0  0  0  0
    7.9220   -0.9330   30.7300 F   0  0  0  0  0  0  0  0  0  0  0  0
    6.2990    0.0110   32.0590 F   0  0  0  0  0  0  0  0  0  0  0  0
    8.2120    1.0840   31.5890 F   0  0  0  0  0  0  0  0  0  0  0  0
    6.7870   -1.1680   28.2900 C   0  0  0  0  0  0  0  0  0  0  0  0
    6.3060   -5.0530   23.8780 C   0  0  0  0  0  0  0  0  0  0  0  0
    6.3930   -5.3400   22.5050 C   0  0  0  0  0  0  0  0  0  0  0  0
  1  2  1  0
  2  3  2  0
  2  4  1  0
  4  5  1  0
  5  6  1  0
  6  7  1  0
  7  8  1  0
  8  9  2  0
  8 10  1  0
 11 10  1  1
 11 12  1  0
 12 13  1  0
 13 14  1  0
 14 15  1  0
 15 16  1  0
 16 17  1  0
 17 18  1  0
 17 19  1  0
 17 20  1  0
 11 21  1  0
 15 21  1  0
  7 22  1  0
  4 23  1  0
 22 23  1  0
M  END
