piperidine-amides-9958-covalent
     RDKit          3D

 26 27  0  0  0  0  0  0  0  0999 V2000
    7.0930   -3.2810   19.2190 C   0  0  0  0  0  0  0  0  0  0  0  0
    6.3890   -4.0500   20.2540 C   0  0  0  0  0  0  0  0  0  0  0  0
    5.3160   -4.6110   19.9060 O   0  0  0  0  0  0  0  0  0  0  0  0
    6.9330   -4.1690   21.5350 N   0  0  0  0  0  0  0  0  0  0  0  0
    7.8040   -3.1450   22.0750 C   0  0  0  0  0  0  0  0  0  0  0  0
    7.4240   -2.8590   23.4960 C   0  0  0  0  0  0  0  0  0  0  0  0
    6.0720   -3.4210   23.8430 C   0  0  0  0  0  0  0  0  0  0  0  0
    5.7350   -3.0300   25.2240 C   0  0  0  0  0  0  0  0  0  0  0  0
    4.5610   -3.2210   25.6210 O   0  0  0  0  0  0  0  0  0  0  0  0
    6.6710   -2.4280   26.0960 N   0  0  0  0  0  0  0  0  0  0  0  0
    6.7440   -2.7710   27.4910 C   0  0  0  0  0  0  0  0  0  0  0  0
    7.8200   -3.7920   27.7540 C   0  0  0  0  0  0  0  0  0  0  0  0
    7.1820   -5.0890   27.9420 N   0  0  0  0  0  0  0  0  0  0  0  0
    7.9020   -6.1200   27.6220 C   0  0  0  0  0  0  0  0  0  0  0  0
    9.1660   -5.9420   27.1080 C   0  0  0  0  0  0  0  0  0  0  0  0
    5.9130   -5.3680   27.6400 C   0  0  0  0  0  0  0  0  0  0  0  0
    5.1250   -6.1140   28.5040 C   0  0  0  0  0  0  0  0  0  0  0  0
    5.4990   -6.4100   29.8140 C   0  0  0  0  0  0  0  0  0  0  0  0
    4.8020   -7.1920   30.9240 C   0  0  0  0  0  0  0  0  0  0  0  0
    5.4080   -7.4870   32.5670 Cl  0  0  0  0  0  0  0  0  0  0  0  0
    3.4720   -7.6880   30.3820 C   0  0  0  0  0  0  0  0  0  0  0  0
    2.9360   -7.4540   29.0100 C   0  0  0  0  0  0  0  0  0  0  0  0
    1.2930   -8.1460   28.5600 Cl  0  0  0  0  0  0  0  0  0  0  0  0
    3.7780   -6.6510   28.0460 C   0  0  0  0  0  0  0  0  0  0  0  0
    5.9980   -4.8970   23.6580 C   0  0  0  0  0  0  0  0  0  0  0  0
    6.6110   -5.3170   22.3380 C   0  0  0  0  0  0  0  0  0  0  0  0
  1  2  1  0
  2  3  2  0
  2  4  1  0
  4  5  1  0
  5  6  1  0
  6  7  1  0
  7  8  1  0
  8  9  2  0
  8 10  1  0
 10 11  1  0
 11 12  1  0
 12 13  1  0
 13 14  1  0
 14 15  1  0
 13 16  1  0
 16 17  1  0
 17 18  2  0
 18 19  1  0
 19 20  1  0
 19 21  2  0
 21 22  1  0
 22 23  1  0
 17 24  1  0
 22 24  2  0
  7 25  1  0
  4 26  1  0
 25 26  1  0
M  END
