piperidine-amides-29759-covalent
     RDKit          3D

 25 27  0  0  0  0  0  0  0  0999 V2000
    7.0120   -3.4170   19.4310 C   0  0  0  0  0  0  0  0  0  0  0  0
    6.3450   -4.2790   20.3990 C   0  0  0  0  0  0  0  0  0  0  0  0
    5.4000   -4.9670   20.0140 O   0  0  0  0  0  0  0  0  0  0  0  0
    6.8080   -4.3660   21.7680 N   0  0  0  0  0  0  0  0  0  0  0  0
    6.6040   -5.5950   22.5150 C   0  0  0  0  0  0  0  0  0  0  0  0
    6.1030   -5.3050   23.9150 C   0  0  0  0  0  0  0  0  0  0  0  0
    6.0010   -3.8020   24.0320 C   0  0  0  0  0  0  0  0  0  0  0  0
    5.2770   -3.3230   25.2750 C   0  0  0  0  0  0  0  0  0  0  0  0
    4.4580   -2.3990   25.1740 O   0  0  0  0  0  0  0  0  0  0  0  0
    5.4450   -3.8510   26.5960 N   0  0  0  0  0  0  0  0  0  0  0  0
    6.4430   -3.2210   27.3330 C   0  0  0  0  0  0  0  0  0  0  0  0
    6.7950   -4.2650   28.3510 C   0  0  0  0  0  0  0  0  0  0  0  0
    5.8250   -4.5330   29.2140 C   0  0  0  0  0  0  0  0  0  0  0  0
    4.5570   -4.6560   28.6630 C   0  0  1  0  0  0  0  0  0  0  0  0
    3.5080   -4.5860   29.5640 C   0  0  0  0  0  0  0  0  0  0  0  0
    3.0360   -3.2780   29.8990 N   0  0  0  0  0  0  0  0  0  0  0  0
    2.0550   -2.8640   31.2350 S   0  0  0  0  0  0  0  0  0  0  0  0
    2.5770   -1.6000   31.8330 O   0  0  0  0  0  0  0  0  0  0  0  0
    2.0400   -3.9280   32.2750 O   0  0  0  0  0  0  0  0  0  0  0  0
    0.5400   -2.7520   30.4750 C   0  0  0  0  0  0  0  0  0  0  0  0
    0.5250   -1.5570   30.3910 C   0  0  0  0  0  0  0  0  0  0  0  0
   -0.6770   -2.1470   30.9460 C   0  0  0  0  0  0  0  0  0  0  0  0
    4.2760   -4.0140   27.4410 C   0  0  0  0  0  0  0  0  0  0  0  0
    7.2220   -3.0900   23.7070 C   0  0  0  0  0  0  0  0  0  0  0  0
    7.6040   -3.3180   22.3890 C   0  0  0  0  0  0  0  0  0  0  0  0
  1  2  1  0
  2  3  2  0
  2  4  1  0
  4  5  1  0
  5  6  1  0
  6  7  1  0
  7  8  1  0
  8  9  2  0
  8 10  1  0
 10 11  1  0
 11 12  1  0
 12 13  1  0
 13 14  1  0
 14 15  1  1
 15 16  1  0
 17 16  1  0
 17 18  2  0
 17 19  2  0
 17 20  1  0
 20 21  1  0
 20 22  1  0
 21 22  1  0
 10 23  1  0
 14 23  1  0
  7 24  1  0
  4 25  1  0
 24 25  1  0
M  END
