piperidine-amides-31580-covalent
     RDKit          3D

 28 30  0  0  0  0  0  0  0  0999 V2000
    7.0130   -3.3860   19.3600 C   0  0  0  0  0  0  0  0  0  0  0  0
    6.3400   -4.1490   20.3950 C   0  0  0  0  0  0  0  0  0  0  0  0
    5.4120   -4.9240   20.0040 O   0  0  0  0  0  0  0  0  0  0  0  0
    6.6650   -4.1080   21.7740 N   0  0  0  0  0  0  0  0  0  0  0  0
    6.2360   -5.2840   22.5790 C   0  0  0  0  0  0  0  0  0  0  0  0
    6.0680   -4.6920   24.0530 C   0  0  0  0  0  0  0  0  0  0  0  0
    5.9220   -3.1850   23.9270 C   0  0  0  0  0  0  0  0  0  0  0  0
    5.1960   -2.4570   25.1790 C   0  0  0  0  0  0  0  0  0  0  0  0
    4.0720   -2.1020   24.8630 O   0  0  0  0  0  0  0  0  0  0  0  0
    5.9760   -2.4560   26.1890 N   0  0  0  0  0  0  0  0  0  0  0  0
    6.8260   -2.9160   27.0630 C   0  0  0  0  0  0  0  0  0  0  0  0
    7.5890   -3.9200   26.9450 C   0  0  0  0  0  0  0  0  0  0  0  0
    7.3880   -4.8980   27.8930 C   0  0  0  0  0  0  0  0  0  0  0  0
    8.1250   -6.1450   27.9440 C   0  0  0  0  0  0  0  0  0  0  0  0
    9.1390   -6.1500   26.7660 C   0  0  0  0  0  0  0  0  0  0  0  0
    9.9530   -7.1570   26.5300 F   0  0  0  0  0  0  0  0  0  0  0  0
    9.1890   -5.0760   25.9410 C   0  0  0  0  0  0  0  0  0  0  0  0
    8.4510   -3.9910   26.0050 C   0  0  0  0  0  0  0  0  0  0  0  0
    8.6370   -3.0040   25.0810 F   0  0  0  0  0  0  0  0  0  0  0  0
    6.0750   -1.2580   26.9850 C   0  0  0  0  0  0  0  0  0  0  0  0
    5.6670    0.0740   26.3270 C   0  0  0  0  0  0  0  0  0  0  0  0
    5.7830    1.1570   27.1090 C   0  0  0  0  0  0  0  0  0  0  0  0
    6.2350    1.0340   28.3810 C   0  0  0  0  0  0  0  0  0  0  0  0
    6.3720    2.1110   29.2000 C   0  0  0  0  0  0  0  0  0  0  0  0
    6.5560   -0.2430   28.8110 C   0  0  0  0  0  0  0  0  0  0  0  0
    6.4510   -1.2010   28.1220 N   0  0  0  0  0  0  0  0  0  0  0  0
    7.0750   -2.4140   23.3920 C   0  0  0  0  0  0  0  0  0  0  0  0
    7.6790   -3.2070   22.2760 C   0  0  0  0  0  0  0  0  0  0  0  0
  1  2  1  0
  2  3  2  0
  2  4  1  0
  4  5  1  0
  5  6  1  0
  6  7  1  0
  7  8  1  0
  8  9  2  0
  8 10  1  0
 10 11  1  0
 11 12  1  0
 12 13  2  0
 13 14  1  0
 14 15  2  0
 15 16  1  0
 15 17  1  0
 12 18  1  0
 17 18  2  0
 18 19  1  0
 10 20  1  0
 20 21  2  0
 21 22  1  0
 22 23  2  0
 23 24  1  0
 23 25  1  0
 20 26  1  0
 25 26  2  0
  7 27  1  0
  4 28  1  0
 27 28  1  0
M  END
