piperidine-amides-4520-covalent
     RDKit          3D

 25 26  0  0  0  0  0  0  0  0999 V2000
    7.0860   -3.3630   19.3730 C   0  0  0  0  0  0  0  0  0  0  0  0
    6.3830   -4.1850   20.3780 C   0  0  0  0  0  0  0  0  0  0  0  0
    5.3820   -4.8190   19.9800 O   0  0  0  0  0  0  0  0  0  0  0  0
    6.8700   -4.2700   21.6940 N   0  0  0  0  0  0  0  0  0  0  0  0
    6.5840   -5.4110   22.4990 C   0  0  0  0  0  0  0  0  0  0  0  0
    6.0560   -5.0330   23.8060 C   0  0  0  0  0  0  0  0  0  0  0  0
    5.9700   -3.5670   23.9870 C   0  0  0  0  0  0  0  0  0  0  0  0
    5.5530   -3.1850   25.3610 C   0  0  0  0  0  0  0  0  0  0  0  0
    4.3340   -3.1210   25.6000 O   0  0  0  0  0  0  0  0  0  0  0  0
    6.4890   -2.9080   26.3680 N   0  0  0  0  0  0  0  0  0  0  0  0
    6.4770   -1.6820   27.2010 C   0  0  0  0  0  0  0  0  0  0  0  0
    5.7840   -0.5000   26.6480 C   0  0  0  0  0  0  0  0  0  0  0  0
    5.7280    0.7450   27.3990 C   0  0  0  0  0  0  0  0  0  0  0  0
    6.3420    0.7920   28.6390 C   0  0  0  0  0  0  0  0  0  0  0  0
    6.3240    1.9480   29.4020 C   0  0  0  0  0  0  0  0  0  0  0  0
    7.3720    2.2980   30.0920 O   0  0  0  0  0  0  0  0  0  0  0  0
    5.1750    2.8130   29.4750 N   0  0  0  0  0  0  0  0  0  0  0  0
    4.3840    2.9260   30.5580 C   0  0  0  0  0  0  0  0  0  0  0  0
    3.1300    3.1740   30.0880 C   0  0  0  0  0  0  0  0  0  0  0  0
    4.9840    3.9100   31.3280 C   0  0  0  0  0  0  0  0  0  0  0  0
    6.9970   -0.3240   29.1570 C   0  0  0  0  0  0  0  0  0  0  0  0
    7.6640   -0.3030   30.4740 C   0  0  0  0  0  0  0  0  0  0  0  0
    7.0400   -1.5070   28.4310 C   0  0  0  0  0  0  0  0  0  0  0  0
    7.2820   -2.8920   23.5620 C   0  0  0  0  0  0  0  0  0  0  0  0
    7.7240   -3.2380   22.2620 C   0  0  0  0  0  0  0  0  0  0  0  0
  1  2  1  0
  2  3  2  0
  2  4  1  0
  4  5  1  0
  5  6  1  0
  6  7  1  0
  7  8  1  0
  8  9  2  0
  8 10  1  0
 10 11  1  0
 11 12  2  0
 12 13  1  0
 13 14  2  0
 14 15  1  0
 15 16  2  0
 15 17  1  0
 17 18  1  0
 18 19  1  0
 18 20  1  0
 14 21  1  0
 21 22  1  0
 11 23  1  0
 21 23  2  0
  7 24  1  0
  4 25  1  0
 24 25  1  0
M  END
