piperidine-amides-4248-covalent
     RDKit          3D

 26 28  0  0  0  0  0  0  0  0999 V2000
    7.1570   -3.3630   19.3300 C   0  0  0  0  0  0  0  0  0  0  0  0
    6.4400   -4.1840   20.3120 C   0  0  0  0  0  0  0  0  0  0  0  0
    5.3490   -4.6870   19.9480 O   0  0  0  0  0  0  0  0  0  0  0  0
    7.0130   -4.4440   21.5800 N   0  0  0  0  0  0  0  0  0  0  0  0
    7.7240   -3.3720   22.2000 C   0  0  0  0  0  0  0  0  0  0  0  0
    7.1420   -2.9470   23.4480 C   0  0  0  0  0  0  0  0  0  0  0  0
    5.8990   -3.6540   23.7850 C   0  0  0  0  0  0  0  0  0  0  0  0
    5.4100   -3.1500   25.0890 C   0  0  0  0  0  0  0  0  0  0  0  0
    4.4870   -3.7170   25.6970 O   0  0  0  0  0  0  0  0  0  0  0  0
    6.0030   -2.0000   25.6020 N   0  0  0  0  0  0  0  0  0  0  0  0
    5.5870   -1.1850   26.6610 C   0  0  2  0  0  0  0  0  0  0  0  0
    5.5140    0.2540   26.5170 C   0  0  0  0  0  0  0  0  0  0  0  0
    5.2370    0.8360   27.9240 C   0  0  0  0  0  0  0  0  0  0  0  0
    6.3390    1.0290   28.7560 C   0  0  0  0  0  0  0  0  0  0  0  0
    6.8350   -0.3850   28.4820 C   0  0  0  0  0  0  0  0  0  0  0  0
    7.8950   -0.5110   29.5210 C   0  0  0  0  0  0  0  0  0  0  0  0
    8.5300   -1.8890   29.3600 C   0  0  0  0  0  0  0  0  0  0  0  0
    8.2040   -3.0210   28.4260 C   0  0  0  0  0  0  0  0  0  0  0  0
    8.7930   -4.4220   28.3370 C   0  0  0  0  0  0  0  0  0  0  0  0
    9.9820   -4.7600   28.3930 O   0  0  0  0  0  0  0  0  0  0  0  0
    7.8920   -5.3990   28.1640 O   0  0  0  0  0  0  0  0  0  0  0  0
    7.7700   -6.0190   26.9190 C   0  0  0  0  0  0  0  0  0  0  0  0
    7.1420   -2.6440   27.5290 C   0  0  0  0  0  0  0  0  0  0  0  0
    6.5940   -1.4120   27.6360 C   0  0  0  0  0  0  0  0  0  0  0  0
    5.9770   -5.1370   23.6650 C   0  0  0  0  0  0  0  0  0  0  0  0
    6.5720   -5.5770   22.3490 C   0  0  0  0  0  0  0  0  0  0  0  0
  1  2  1  0
  2  3  2  0
  2  4  1  0
  4  5  1  0
  5  6  1  0
  6  7  1  0
  7  8  1  0
  8  9  2  0
  8 10  1  0
 11 10  1  6
 11 12  1  0
 12 13  1  0
 13 14  1  0
 14 15  1  0
 15 16  2  0
 16 17  1  0
 17 18  2  0
 18 19  1  0
 19 20  2  0
 19 21  1  0
 21 22  1  0
 18 23  1  0
 11 24  1  0
 15 24  1  0
 23 24  2  0
  7 25  1  0
  4 26  1  0
 25 26  1  0
M  END
