piperidine-amides-31495-covalent
     RDKit          3D

 28 30  0  0  0  0  0  0  0  0999 V2000
    7.0120   -3.4080   19.3380 C   0  0  0  0  0  0  0  0  0  0  0  0
    6.3670   -4.1950   20.3730 C   0  0  0  0  0  0  0  0  0  0  0  0
    5.3950   -4.9210   20.0030 O   0  0  0  0  0  0  0  0  0  0  0  0
    6.7820   -4.2320   21.7310 N   0  0  0  0  0  0  0  0  0  0  0  0
    7.7580   -3.1810   22.1750 C   0  0  0  0  0  0  0  0  0  0  0  0
    7.5420   -3.1000   23.7370 C   0  0  0  0  0  0  0  0  0  0  0  0
    6.1620   -3.6440   23.9390 C   0  0  0  0  0  0  0  0  0  0  0  0
    5.3970   -3.0060   25.1840 C   0  0  0  0  0  0  0  0  0  0  0  0
    4.7060   -2.0750   24.8070 O   0  0  0  0  0  0  0  0  0  0  0  0
    5.6770   -3.6200   26.2640 N   0  0  0  0  0  0  0  0  0  0  0  0
    6.1560   -4.5870   27.1170 C   0  0  0  0  0  0  0  0  0  0  0  0
    5.8420   -5.8180   27.5950 C   0  0  0  0  0  0  0  0  0  0  0  0
    6.4140   -6.0190   28.8720 C   0  0  0  0  0  0  0  0  0  0  0  0
    5.4160   -6.5100   29.7210 O   0  0  0  0  0  0  0  0  0  0  0  0
    5.2420   -7.8490   29.4490 C   0  0  0  0  0  0  0  0  0  0  0  0
    5.0960   -2.8260   27.3670 C   0  0  0  0  0  0  0  0  0  0  0  0
    3.9410   -3.1220   28.2480 N   0  0  0  0  0  0  0  0  0  0  0  0
    3.5150   -2.2150   29.2840 C   0  0  0  0  0  0  0  0  0  0  0  0
    2.1050   -2.2570   29.5700 C   0  0  0  0  0  0  0  0  0  0  0  0
    2.1410   -1.1840   30.6870 C   0  0  0  0  0  0  0  0  0  0  0  0
    3.3410   -0.3810   31.2480 C   0  0  0  0  0  0  0  0  0  0  0  0
    4.5460   -0.6130   30.7200 C   0  0  0  0  0  0  0  0  0  0  0  0
    4.6250   -1.5320   29.7370 C   0  0  0  0  0  0  0  0  0  0  0  0
    5.6120   -2.0080   29.0000 N   0  0  0  0  0  0  0  0  0  0  0  0
    5.6580   -1.4390   27.7810 C   0  0  0  0  0  0  0  0  0  0  0  0
    6.1050   -0.4840   28.5040 O   0  0  0  0  0  0  0  0  0  0  0  0
    6.0250   -5.1070   23.7270 C   0  0  0  0  0  0  0  0  0  0  0  0
    6.6250   -5.4390   22.5110 C   0  0  0  0  0  0  0  0  0  0  0  0
  1  2  1  0
  2  3  2  0
  2  4  1  0
  4  5  1  0
  5  6  1  0
  6  7  1  0
  7  8  1  0
  8  9  2  0
  8 10  1  0
 10 11  1  0
 11 12  1  0
 12 13  1  0
 13 14  1  0
 14 15  1  0
 10 16  1  0
 16 17  2  0
 17 18  1  0
 18 19  2  0
 19 20  1  0
 20 21  2  0
 21 22  1  0
 18 23  1  0
 22 23  2  0
 23 24  1  0
 16 25  1  0
 24 25  1  0
 25 26  2  0
  7 27  1  0
  4 28  1  0
 27 28  1  0
M  END
