piperidine-amides-35472-covalent
     RDKit          3D

 36 41  0  0  0  0  0  0  0  0999 V2000
    7.1030   -3.3460   19.3530 C   0  0  0  0  0  0  0  0  0  0  0  0
    6.4470   -4.2400   20.3370 C   0  0  0  0  0  0  0  0  0  0  0  0
    5.4060   -4.7920   19.9760 O   0  0  0  0  0  0  0  0  0  0  0  0
    7.0440   -4.4720   21.5830 N   0  0  0  0  0  0  0  0  0  0  0  0
    6.6930   -5.6080   22.3690 C   0  0  0  0  0  0  0  0  0  0  0  0
    5.7380   -5.1490   23.4300 C   0  0  0  0  0  0  0  0  0  0  0  0
    6.2500   -3.9120   24.1900 C   0  0  0  0  0  0  0  0  0  0  0  0
    5.0980   -3.5000   25.0160 C   0  0  0  0  0  0  0  0  0  0  0  0
    3.9810   -3.4750   24.5050 O   0  0  0  0  0  0  0  0  0  0  0  0
    5.2130   -3.1370   26.3550 N   0  0  0  0  0  0  0  0  0  0  0  0
    6.4880   -2.8720   26.8400 C   0  0  0  0  0  0  0  0  0  0  0  0
    6.3180   -3.3270   28.2470 C   0  0  2  0  0  0  0  0  0  0  0  0
    6.7980   -4.5490   28.6680 C   0  0  0  0  0  0  0  0  0  0  0  0
    6.0490   -5.3280   29.5250 N   0  0  0  0  0  0  0  0  0  0  0  0
    5.8540   -6.7230   29.1630 C   0  0  0  0  0  0  0  0  0  0  0  0
    4.7270   -7.1590   29.8130 C   0  0  0  0  0  0  0  0  0  0  0  0
    3.3090   -7.4350   29.3740 C   0  0  0  0  0  0  0  0  0  0  0  0
    2.3980   -7.9150   30.4710 C   0  0  0  0  0  0  0  0  0  0  0  0
    2.9190   -8.0870   31.8810 C   0  0  0  0  0  0  0  0  0  0  0  0
    4.3560   -7.7610   32.1110 C   0  0  0  0  0  0  0  0  0  0  0  0
    5.3790   -7.2820   31.1460 C   0  0  0  0  0  0  0  0  0  0  0  0
    4.8490   -4.6920   29.5020 C   0  0  0  0  0  0  0  0  0  0  0  0
    5.0700   -3.4160   28.7640 C   0  0  1  0  0  0  0  0  0  0  0  0
    4.6270   -2.2270   29.5280 C   0  0  0  0  0  0  0  0  0  0  0  0
    5.5910   -1.2800   29.4380 N   0  0  0  0  0  0  0  0  0  0  0  0
    5.9640   -0.5370   30.6510 C   0  0  0  0  0  0  0  0  0  0  0  0
    5.8400    0.9300   30.3090 C   0  0  0  0  0  0  0  0  0  0  0  0
    5.2610    1.9280   31.3340 C   0  0  0  0  0  0  0  0  0  0  0  0
    5.1320    3.4110   31.0020 C   0  0  0  0  0  0  0  0  0  0  0  0
    5.5210    3.8980   29.8050 C   0  0  0  0  0  0  0  0  0  0  0  0
    6.0950    2.9300   28.7800 C   0  0  0  0  0  0  0  0  0  0  0  0
    6.2350    1.4690   29.0700 C   0  0  0  0  0  0  0  0  0  0  0  0
    6.7480   -2.0220   28.9290 C   0  0  0  0  0  0  0  0  0  0  0  0
    4.2960   -3.4550   27.4530 C   0  0  0  0  0  0  0  0  0  0  0  0
    6.8210   -2.8390   23.3090 C   0  0  0  0  0  0  0  0  0  0  0  0
    7.7560   -3.4270   22.2600 C   0  0  0  0  0  0  0  0  0  0  0  0
  1  2  1  0
  2  3  2  0
  2  4  1  0
  4  5  1  0
  5  6  1  0
  6  7  1  0
  7  8  1  0
  8  9  2  0
  8 10  1  0
 10 11  1  0
 12 11  1  6
 12 13  1  0
 13 14  1  0
 14 15  1  0
 15 16  1  0
 16 17  2  0
 17 18  1  0
 18 19  2  0
 19 20  1  0
 16 21  1  0
 20 21  2  0
 14 22  1  0
 12 23  1  0
 23 22  1  1
 23 24  1  0
 24 25  1  0
 25 26  1  0
 26 27  1  0
 27 28  2  0
 28 29  1  0
 29 30  2  0
 30 31  1  0
 27 32  1  0
 31 32  2  0
 12 33  1  0
 25 33  1  0
 10 34  1  0
 23 34  1  0
  7 35  1  0
  4 36  1  0
 35 36  1  0
M  END
