piperidine-amides-35193-covalent
     RDKit          3D

 30 31  0  0  0  0  0  0  0  0999 V2000
    7.1340   -3.2650   19.1860 C   0  0  0  0  0  0  0  0  0  0  0  0
    6.3990   -4.0410   20.2180 C   0  0  0  0  0  0  0  0  0  0  0  0
    5.3290   -4.5580   19.8900 O   0  0  0  0  0  0  0  0  0  0  0  0
    6.9570   -4.1960   21.4840 N   0  0  0  0  0  0  0  0  0  0  0  0
    7.7060   -3.1310   22.0890 C   0  0  0  0  0  0  0  0  0  0  0  0
    6.9340   -2.6320   23.2650 C   0  0  0  0  0  0  0  0  0  0  0  0
    6.6640   -3.7870   24.2300 C   0  0  0  0  0  0  0  0  0  0  0  0
    5.8020   -3.2460   25.2950 C   0  0  0  0  0  0  0  0  0  0  0  0
    4.5880   -3.1260   25.0630 O   0  0  0  0  0  0  0  0  0  0  0  0
    6.2860   -2.8640   26.5600 N   0  0  0  0  0  0  0  0  0  0  0  0
    6.6520   -1.4690   26.6370 C   0  0  0  0  0  0  0  0  0  0  0  0
    5.3950   -0.6920   26.9700 C   0  0  0  0  0  0  0  0  0  0  0  0
    5.3600    0.4860   26.0930 N   0  0  0  0  0  0  0  0  0  0  0  0
    5.4740    1.6270   27.0090 C   0  0  0  0  0  0  0  0  0  0  0  0
    4.2940    0.4100   25.1210 C   0  0  0  0  0  0  0  0  0  0  0  0
    5.7400   -3.3990   27.7510 C   0  0  1  0  0  0  0  0  0  0  0  0
    6.1000   -4.8300   28.0970 C   0  0  0  0  0  0  0  0  0  0  0  0
    6.0710   -5.7660   27.0950 O   0  0  0  0  0  0  0  0  0  0  0  0
    6.3910   -5.2300   29.3750 O   0  0  0  0  0  0  0  0  0  0  0  0
    6.1580   -6.5880   29.6860 C   0  0  0  0  0  0  0  0  0  0  0  0
    5.7980   -2.4160   28.8930 C   0  0  0  0  0  0  0  0  0  0  0  0
    7.0380   -1.6350   29.1800 C   0  0  0  0  0  0  0  0  0  0  0  0
    7.0080   -0.6800   30.3140 C   0  0  0  0  0  0  0  0  0  0  0  0
    5.7720   -0.4850   31.1650 C   0  0  0  0  0  0  0  0  0  0  0  0
    5.7210    0.6380   32.5050 Cl  0  0  0  0  0  0  0  0  0  0  0  0
    4.5670   -1.2990   30.8280 C   0  0  0  0  0  0  0  0  0  0  0  0
    3.1160   -1.1130   31.7840 Cl  0  0  0  0  0  0  0  0  0  0  0  0
    4.6620   -2.2600   29.6560 C   0  0  0  0  0  0  0  0  0  0  0  0
    5.8990   -4.8920   23.5250 C   0  0  0  0  0  0  0  0  0  0  0  0
    6.5640   -5.3340   22.2480 C   0  0  0  0  0  0  0  0  0  0  0  0
  1  2  1  0
  2  3  2  0
  2  4  1  0
  4  5  1  0
  5  6  1  0
  6  7  1  0
  7  8  1  0
  8  9  2  0
  8 10  1  0
 10 11  1  0
 11 12  1  0
 12 13  1  0
 13 14  1  0
 13 15  1  0
 10 16  1  0
 16 17  1  1
 17 18  2  0
 17 19  1  0
 19 20  1  0
 16 21  1  0
 21 22  2  0
 22 23  1  0
 23 24  2  0
 24 25  1  0
 24 26  1  0
 26 27  1  0
 21 28  1  0
 26 28  2  0
  7 29  1  0
  4 30  1  0
 29 30  1  0
M  END
