piperidine-amides-2267-covalent
     RDKit          3D

 28 30  0  0  0  0  0  0  0  0999 V2000
    7.0480   -3.3480   19.3650 C   0  0  0  0  0  0  0  0  0  0  0  0
    6.3490   -4.1860   20.3700 C   0  0  0  0  0  0  0  0  0  0  0  0
    5.3850   -4.8400   19.9780 O   0  0  0  0  0  0  0  0  0  0  0  0
    6.8180   -4.2350   21.6880 N   0  0  0  0  0  0  0  0  0  0  0  0
    7.6790   -3.2060   22.2240 C   0  0  0  0  0  0  0  0  0  0  0  0
    7.4190   -3.0450   23.6930 C   0  0  0  0  0  0  0  0  0  0  0  0
    6.0540   -3.6560   24.0100 C   0  0  0  0  0  0  0  0  0  0  0  0
    5.6180   -3.2630   25.3670 C   0  0  0  0  0  0  0  0  0  0  0  0
    4.4070   -3.2560   25.6160 O   0  0  0  0  0  0  0  0  0  0  0  0
    6.5240   -2.8900   26.3780 N   0  0  0  0  0  0  0  0  0  0  0  0
    6.3650   -1.5730   26.9560 C   0  0  0  0  0  0  0  0  0  0  0  0
    6.9380   -1.4990   28.3280 C   0  0  0  0  0  0  0  0  0  0  0  0
    7.0080   -0.5020   29.2080 C   0  0  0  0  0  0  0  0  0  0  0  0
    6.4790    0.6810   28.8560 C   0  0  0  0  0  0  0  0  0  0  0  0
    6.5420    1.9900   29.9580 S   0  0  0  0  0  0  0  0  0  0  0  0
    7.2690    1.6080   31.2040 O   0  0  0  0  0  0  0  0  0  0  0  0
    5.1660    2.5330   30.2190 O   0  0  0  0  0  0  0  0  0  0  0  0
    7.3860    3.1340   28.9760 N   0  0  0  0  0  0  0  0  0  0  0  0
    6.8470    4.3890   28.5140 C   0  0  0  0  0  0  0  0  0  0  0  0
    5.4800    4.9860   28.7730 C   0  0  0  0  0  0  0  0  0  0  0  0
    6.1620    6.3200   28.9990 C   0  0  0  0  0  0  0  0  0  0  0  0
    7.0740    6.3760   27.7930 C   0  0  0  0  0  0  0  0  0  0  0  0
    7.6110    5.1490   27.7570 N   0  0  0  0  0  0  0  0  0  0  0  0
    8.9740    4.8530   27.3870 C   0  0  0  0  0  0  0  0  0  0  0  0
    5.8650    0.6350   27.4150 C   0  0  0  0  0  0  0  0  0  0  0  0
    5.6870   -0.3900   26.2580 C   0  0  0  0  0  0  0  0  0  0  0  0
    6.1240   -5.1570   23.8460 C   0  0  0  0  0  0  0  0  0  0  0  0
    6.6770   -5.4500   22.4710 C   0  0  0  0  0  0  0  0  0  0  0  0
  1  2  1  0
  2  3  2  0
  2  4  1  0
  4  5  1  0
  5  6  1  0
  6  7  1  0
  7  8  1  0
  8  9  2  0
  8 10  1  0
 10 11  1  0
 11 12  2  0
 12 13  1  0
 13 14  2  0
 14 15  1  0
 15 16  2  0
 15 17  2  0
 15 18  1  0
 18 19  2  3
 19 20  1  0
 20 21  1  0
 21 22  1  0
 19 23  1  0
 22 23  1  0
 23 24  1  0
 14 25  1  0
 11 26  1  0
 25 26  2  0
  7 27  1  0
  4 28  1  0
 27 28  1  0
M  END
