piperidine-amides-2997-covalent
     RDKit          3D

 23 25  0  0  0  0  0  0  0  0999 V2000
    7.0130   -3.2280   19.1420 C   0  0  0  0  0  0  0  0  0  0  0  0
    6.1900   -3.8950   20.1530 C   0  0  0  0  0  0  0  0  0  0  0  0
    5.1780   -4.5020   19.8310 O   0  0  0  0  0  0  0  0  0  0  0  0
    6.5590   -3.8860   21.5300 N   0  0  0  0  0  0  0  0  0  0  0  0
    7.3430   -2.8080   22.0430 C   0  0  0  0  0  0  0  0  0  0  0  0
    6.9480   -2.4740   23.4610 C   0  0  0  0  0  0  0  0  0  0  0  0
    5.7340   -3.2910   23.9320 C   0  0  0  0  0  0  0  0  0  0  0  0
    5.6440   -3.2880   25.4390 C   0  0  0  0  0  0  0  0  0  0  0  0
    4.5360   -3.3470   26.0100 O   0  0  0  0  0  0  0  0  0  0  0  0
    6.8210   -3.2010   26.2560 N   0  0  0  0  0  0  0  0  0  0  0  0
    7.3090   -4.3850   26.9640 C   0  0  0  0  0  0  0  0  0  0  0  0
    8.1160   -5.1350   25.9420 C   0  0  1  0  0  0  0  0  0  0  0  0
    7.5380   -5.0750   24.7000 C   0  0  0  0  0  0  0  0  0  0  0  0
    8.1080   -4.0290   23.9650 C   0  0  0  0  0  0  0  0  0  0  0  0
    9.3230   -3.8620   24.5120 C   0  0  0  0  0  0  0  0  0  0  0  0
   10.4780   -3.1410   24.0430 C   0  0  0  0  0  0  0  0  0  0  0  0
   11.6340   -3.1590   24.7680 C   0  0  0  0  0  0  0  0  0  0  0  0
   13.2070   -2.2500   24.2280 Br  0  0  0  0  0  0  0  0  0  0  0  0
   11.6380   -3.8850   25.9480 C   0  0  0  0  0  0  0  0  0  0  0  0
   10.5310   -4.5720   26.4390 C   0  0  0  0  0  0  0  0  0  0  0  0
    9.3140   -4.5510   25.6740 C   0  0  0  0  0  0  0  0  0  0  0  0
    5.5080   -4.7100   23.3710 C   0  0  0  0  0  0  0  0  0  0  0  0
    6.3650   -5.0560   22.3210 C   0  0  0  0  0  0  0  0  0  0  0  0
  1  2  1  0
  2  3  2  0
  2  4  1  0
  4  5  1  0
  5  6  1  0
  6  7  1  0
  7  8  1  0
  8  9  2  0
  8 10  1  0
 10 11  1  0
 12 11  1  1
 12 13  1  0
 13 14  1  0
 14 15  1  0
 15 16  1  0
 16 17  2  0
 17 18  1  0
 17 19  1  0
 19 20  2  0
 12 21  1  0
 15 21  2  0
 20 21  1  0
  7 22  1  0
  4 23  1  0
 22 23  1  0
M  END
