piperidine-amides-12461-covalent
     RDKit          3D

 23 24  0  0  0  0  0  0  0  0999 V2000
    7.1320   -3.2970   19.2590 C   0  0  0  0  0  0  0  0  0  0  0  0
    6.3970   -4.0790   20.2460 C   0  0  0  0  0  0  0  0  0  0  0  0
    5.3540   -4.6540   19.9340 O   0  0  0  0  0  0  0  0  0  0  0  0
    6.9400   -4.2110   21.5700 N   0  0  0  0  0  0  0  0  0  0  0  0
    7.7620   -3.1320   22.0910 C   0  0  0  0  0  0  0  0  0  0  0  0
    7.5030   -2.8640   23.5490 C   0  0  0  0  0  0  0  0  0  0  0  0
    6.1420   -3.4340   23.8780 C   0  0  0  0  0  0  0  0  0  0  0  0
    5.6700   -2.9270   25.1880 C   0  0  0  0  0  0  0  0  0  0  0  0
    4.5920   -2.3220   25.3050 O   0  0  0  0  0  0  0  0  0  0  0  0
    6.4630   -3.1200   26.3260 N   0  0  0  0  0  0  0  0  0  0  0  0
    5.8470   -3.7020   27.4860 C   0  0  0  0  0  0  0  0  0  0  0  0
    4.7980   -4.6950   27.0130 C   0  0  0  0  0  0  0  0  0  0  0  0
    3.6420   -4.3360   26.3010 C   0  0  0  0  0  0  0  0  0  0  0  0
    2.6880   -5.2950   25.8780 C   0  0  0  0  0  0  0  0  0  0  0  0
    1.2480   -4.8200   24.9870 Cl  0  0  0  0  0  0  0  0  0  0  0  0
    2.8840   -6.6240   26.1640 C   0  0  0  0  0  0  0  0  0  0  0  0
    1.5110   -8.1190   25.5620 I   0  0  0  0  0  0  0  0  0  0  0  0
    4.0730   -6.9310   26.8960 C   0  0  0  0  0  0  0  0  0  0  0  0
    4.9860   -6.0140   27.2990 C   0  0  0  0  0  0  0  0  0  0  0  0
    6.0570   -6.2930   27.9590 O   0  0  0  0  0  0  0  0  0  0  0  0
    6.6100   -6.5130   29.2310 C   0  0  0  0  0  0  0  0  0  0  0  0
    6.0300   -4.8960   23.6790 C   0  0  0  0  0  0  0  0  0  0  0  0
    6.5370   -5.3130   22.3770 C   0  0  0  0  0  0  0  0  0  0  0  0
  1  2  1  0
  2  3  2  0
  2  4  1  0
  4  5  1  0
  5  6  1  0
  6  7  1  0
  7  8  1  0
  8  9  2  0
  8 10  1  0
 10 11  1  0
 11 12  1  0
 12 13  2  0
 13 14  1  0
 14 15  1  0
 14 16  2  0
 16 17  1  0
 16 18  1  0
 12 19  1  0
 18 19  2  0
 19 20  1  0
 20 21  1  0
  7 22  1  0
  4 23  1  0
 22 23  1  0
M  END
