piperidine-amides-6957-covalent
     RDKit          3D

 23 24  0  0  0  0  0  0  0  0999 V2000
    7.0410   -3.3160   19.3400 C   0  0  0  0  0  0  0  0  0  0  0  0
    6.3570   -4.1590   20.3380 C   0  0  0  0  0  0  0  0  0  0  0  0
    5.4060   -4.8960   19.9900 O   0  0  0  0  0  0  0  0  0  0  0  0
    6.7770   -4.1720   21.6780 N   0  0  0  0  0  0  0  0  0  0  0  0
    7.6880   -3.1390   22.1320 C   0  0  0  0  0  0  0  0  0  0  0  0
    7.5060   -3.0580   23.6400 C   0  0  0  0  0  0  0  0  0  0  0  0
    6.0950   -3.5260   23.8790 C   0  0  0  0  0  0  0  0  0  0  0  0
    5.6440   -3.1350   25.2280 C   0  0  0  0  0  0  0  0  0  0  0  0
    4.4200   -3.0820   25.4730 O   0  0  0  0  0  0  0  0  0  0  0  0
    6.6300   -2.8440   26.1910 N   0  0  0  0  0  0  0  0  0  0  0  0
    6.5510   -1.7090   27.0700 C   0  0  0  0  0  0  0  0  0  0  0  0
    5.9380   -0.4040   26.5970 C   0  0  0  0  0  0  0  0  0  0  0  0
    5.8360    0.7120   27.3760 C   0  0  0  0  0  0  0  0  0  0  0  0
    6.3040    0.6850   28.6620 C   0  0  0  0  0  0  0  0  0  0  0  0
    6.2540    1.7540   29.5420 O   0  0  0  0  0  0  0  0  0  0  0  0
    5.3680    1.6490   30.6460 C   0  0  0  0  0  0  0  0  0  0  0  0
    6.1290    1.3630   31.7600 C   0  0  0  0  0  0  0  0  0  0  0  0
    5.5330    1.5720   32.9850 O   0  0  0  0  0  0  0  0  0  0  0  0
    5.3310    2.8870   33.4820 C   0  0  0  0  0  0  0  0  0  0  0  0
    6.8750   -0.4200   29.2060 C   0  0  0  0  0  0  0  0  0  0  0  0
    7.0620   -1.7190   28.4960 C   0  0  0  0  0  0  0  0  0  0  0  0
    5.9910   -5.0240   23.6840 C   0  0  0  0  0  0  0  0  0  0  0  0
    6.6440   -5.3700   22.4800 C   0  0  0  0  0  0  0  0  0  0  0  0
  1  2  1  0
  2  3  2  0
  2  4  1  0
  4  5  1  0
  5  6  1  0
  6  7  1  0
  7  8  1  0
  8  9  2  0
  8 10  1  0
 10 11  1  0
 11 12  2  0
 12 13  1  0
 13 14  2  0
 14 15  1  0
 15 16  1  0
 16 17  1  0
 17 18  1  0
 18 19  1  0
 14 20  1  0
 11 21  1  0
 20 21  2  0
  7 22  1  0
  4 23  1  0
 22 23  1  0
M  END
