piperidine-amides-35562-covalent
     RDKit          3D

 37 41  0  0  0  0  0  0  0  0999 V2000
    7.0740   -3.3840   19.3750 C   0  0  0  0  0  0  0  0  0  0  0  0
    6.3960   -4.2380   20.3760 C   0  0  0  0  0  0  0  0  0  0  0  0
    5.3980   -4.8530   19.9930 O   0  0  0  0  0  0  0  0  0  0  0  0
    6.9280   -4.3610   21.6660 N   0  0  0  0  0  0  0  0  0  0  0  0
    6.7080   -5.5670   22.4490 C   0  0  0  0  0  0  0  0  0  0  0  0
    6.1460   -5.2370   23.8130 C   0  0  0  0  0  0  0  0  0  0  0  0
    6.0850   -3.7200   23.9470 C   0  0  0  0  0  0  0  0  0  0  0  0
    5.4640   -3.3210   25.2230 C   0  0  0  0  0  0  0  0  0  0  0  0
    4.5370   -2.5100   25.1710 O   0  0  0  0  0  0  0  0  0  0  0  0
    5.8290   -3.7880   26.4970 N   0  0  0  0  0  0  0  0  0  0  0  0
    6.4450   -2.7940   27.2960 C   0  0  0  0  0  0  0  0  0  0  0  0
    6.7300   -3.4490   28.6280 C   0  0  0  0  0  0  0  0  0  0  0  0
    5.7350   -4.0720   29.2590 C   0  0  0  0  0  0  0  0  0  0  0  0
    4.6760   -3.3010   29.8130 N   0  0  0  0  0  0  0  0  0  0  0  0
    4.5790   -1.9050   29.6350 C   0  0  0  0  0  0  0  0  0  0  0  0
    3.4730   -1.4870   30.2870 N   0  0  0  0  0  0  0  0  0  0  0  0
    2.8570   -2.5520   30.8730 N   0  0  0  0  0  0  0  0  0  0  0  0
    3.5610   -3.6960   30.6110 C   0  0  0  0  0  0  0  0  0  0  0  0
    3.3770   -4.9870   30.9600 N   0  0  0  0  0  0  0  0  0  0  0  0
    2.2420   -5.3000   31.7890 C   0  0  0  0  0  0  0  0  0  0  0  0
    0.9920   -4.7970   31.5180 O   0  0  0  0  0  0  0  0  0  0  0  0
    2.0910   -6.1650   33.0060 C   0  0  0  0  0  0  0  0  0  0  0  0
    1.6220   -5.7010   34.3250 C   0  0  0  0  0  0  0  0  0  0  0  0
    1.2710   -4.2530   34.4300 C   0  0  0  0  0  0  0  0  0  0  0  0
    2.1950   -3.3710   35.1970 C   0  0  0  0  0  0  0  0  0  0  0  0
    1.8830   -1.9030   35.3390 C   0  0  0  0  0  0  0  0  0  0  0  0
    0.6520   -1.3550   34.7070 C   0  0  0  0  0  0  0  0  0  0  0  0
   -0.2080   -2.3450   33.9530 C   0  0  0  0  0  0  0  0  0  0  0  0
    0.1440   -3.6860   33.8660 C   0  0  0  0  0  0  0  0  0  0  0  0
    1.6190   -6.7770   35.1800 N   0  0  0  0  0  0  0  0  0  0  0  0
    2.0380   -7.8840   34.5440 O   0  0  0  0  0  0  0  0  0  0  0  0
    2.3530   -7.5860   33.1770 C   0  0  0  0  0  0  0  0  0  0  0  0
    2.8610   -8.5390   32.0930 C   0  0  0  0  0  0  0  0  0  0  0  0
    5.2350   -5.0400   28.2760 C   0  0  0  0  0  0  0  0  0  0  0  0
    4.6880   -4.3820   27.2140 C   0  0  0  0  0  0  0  0  0  0  0  0
    7.3190   -3.0330   23.6330 C   0  0  0  0  0  0  0  0  0  0  0  0
    7.7400   -3.3300   22.2500 C   0  0  0  0  0  0  0  0  0  0  0  0
  1  2  1  0
  2  3  2  0
  2  4  1  0
  4  5  1  0
  5  6  1  0
  6  7  1  0
  7  8  1  0
  8  9  2  0
  8 10  1  0
 10 11  1  0
 11 12  1  0
 12 13  1  0
 13 14  1  0
 14 15  1  0
 15 16  2  0
 16 17  1  0
 14 18  1  0
 17 18  2  0
 18 19  1  0
 19 20  1  0
 20 21  2  0
 20 22  1  0
 22 23  1  0
 23 24  1  0
 24 25  2  0
 25 26  1  0
 26 27  2  0
 27 28  1  0
 24 29  1  0
 28 29  2  0
 23 30  2  0
 30 31  1  0
 22 32  2  0
 31 32  1  0
 32 33  1  0
 13 34  1  0
 10 35  1  0
 34 35  1  0
  7 36  1  0
  4 37  1  0
 36 37  1  0
M  END
