piperidine-amides-32608-covalent
     RDKit          3D

 29 32  0  0  0  0  0  0  0  0999 V2000
    7.0790   -3.3250   19.3200 C   0  0  0  0  0  0  0  0  0  0  0  0
    6.3730   -4.1840   20.3100 C   0  0  0  0  0  0  0  0  0  0  0  0
    5.3360   -4.7670   19.9580 O   0  0  0  0  0  0  0  0  0  0  0  0
    6.9150   -4.3730   21.6020 N   0  0  0  0  0  0  0  0  0  0  0  0
    6.5430   -5.5270   22.3700 C   0  0  0  0  0  0  0  0  0  0  0  0
    5.5950   -5.0030   23.4500 C   0  0  0  0  0  0  0  0  0  0  0  0
    6.3130   -3.9200   24.1840 C   0  0  0  0  0  0  0  0  0  0  0  0
    5.4530   -3.2250   25.1730 C   0  0  0  0  0  0  0  0  0  0  0  0
    4.3980   -2.7580   24.7390 O   0  0  0  0  0  0  0  0  0  0  0  0
    5.8260   -3.1140   26.5150 N   0  0  0  0  0  0  0  0  0  0  0  0
    6.1940   -4.2290   27.3250 C   0  0  0  0  0  0  0  0  0  0  0  0
    5.4880   -4.9370   28.2660 C   0  0  0  0  0  0  0  0  0  0  0  0
    4.0620   -5.0610   28.2430 C   0  0  0  0  0  0  0  0  0  0  0  0
    3.3280   -5.7780   29.2000 C   0  0  0  0  0  0  0  0  0  0  0  0
    4.0690   -6.4400   30.2970 C   0  0  0  0  0  0  0  0  0  0  0  0
    5.5110   -6.3600   30.3830 C   0  0  0  0  0  0  0  0  0  0  0  0
    6.1590   -5.5590   29.2760 C   0  0  0  0  0  0  0  0  0  0  0  0
    5.9110   -7.0410   31.4980 O   0  0  0  0  0  0  0  0  0  0  0  0
    4.7530   -7.4970   32.1750 C   0  0  0  0  0  0  0  0  0  0  0  0
    3.6110   -7.1940   31.3670 O   0  0  0  0  0  0  0  0  0  0  0  0
    6.0540   -1.8060   27.1670 C   0  0  0  0  0  0  0  0  0  0  0  0
    6.8230   -1.8170   28.4960 C   0  0  0  0  0  0  0  0  0  0  0  0
    7.2200   -0.8170   29.4030 C   0  0  0  0  0  0  0  0  0  0  0  0
    6.6470    0.4630   28.7010 C   0  0  0  0  0  0  0  0  0  0  0  0
    6.8890    1.5990   29.3880 F   0  0  0  0  0  0  0  0  0  0  0  0
    5.8960    0.5660   27.4110 C   0  0  0  0  0  0  0  0  0  0  0  0
    5.5920   -0.6510   26.6090 C   0  0  0  0  0  0  0  0  0  0  0  0
    6.8490   -2.8030   23.3050 C   0  0  0  0  0  0  0  0  0  0  0  0
    7.5750   -3.2730   22.2260 C   0  0  0  0  0  0  0  0  0  0  0  0
  1  2  1  0
  2  3  2  0
  2  4  1  0
  4  5  1  0
  5  6  1  0
  6  7  1  0
  7  8  1  0
  8  9  2  0
  8 10  1  0
 10 11  1  0
 11 12  1  0
 12 13  2  0
 13 14  1  0
 14 15  2  0
 15 16  1  0
 12 17  1  0
 16 17  2  0
 16 18  1  0
 18 19  1  0
 15 20  1  0
 19 20  1  0
 10 21  1  0
 21 22  2  0
 22 23  1  0
 23 24  2  0
 24 25  1  0
 24 26  1  0
 21 27  1  0
 26 27  2  0
  7 28  1  0
  4 29  1  0
 28 29  1  0
M  END
