piperidine-amides-33420-covalent
     RDKit          3D

 29 32  0  0  0  0  0  0  0  0999 V2000
    7.1260   -3.3570   19.2560 C   0  0  0  0  0  0  0  0  0  0  0  0
    6.4630   -4.1720   20.2830 C   0  0  0  0  0  0  0  0  0  0  0  0
    5.3840   -4.7280   19.9580 O   0  0  0  0  0  0  0  0  0  0  0  0
    7.0710   -4.3680   21.5490 N   0  0  0  0  0  0  0  0  0  0  0  0
    6.5400   -5.3800   22.3800 C   0  0  0  0  0  0  0  0  0  0  0  0
    6.0170   -4.8880   23.6550 C   0  0  0  0  0  0  0  0  0  0  0  0
    6.5800   -3.6260   24.2210 C   0  0  0  0  0  0  0  0  0  0  0  0
    5.6180   -3.0650   25.2060 C   0  0  0  0  0  0  0  0  0  0  0  0
    4.4730   -2.7800   24.8170 O   0  0  0  0  0  0  0  0  0  0  0  0
    5.9360   -2.8640   26.5500 N   0  0  0  0  0  0  0  0  0  0  0  0
    5.4710   -3.7520   27.5300 C   0  0  0  0  0  0  0  0  0  0  0  0
    6.1680   -4.8190   27.9580 N   0  0  0  0  0  0  0  0  0  0  0  0
    5.6830   -5.6170   28.8770 C   0  0  0  0  0  0  0  0  0  0  0  0
    6.3780   -6.7920   29.3950 C   0  0  0  0  0  0  0  0  0  0  0  0
    5.8540   -7.5910   30.3460 C   0  0  0  0  0  0  0  0  0  0  0  0
    4.4310   -7.2200   30.8960 C   0  0  0  0  0  0  0  0  0  0  0  0
    3.6800   -5.9760   30.3530 C   0  0  0  0  0  0  0  0  0  0  0  0
    4.4280   -5.1700   29.2710 C   0  0  0  0  0  0  0  0  0  0  0  0
    3.9700   -3.7730   28.4400 S   0  0  0  0  0  0  0  0  0  0  0  0
    6.1930   -1.6490   27.2370 C   0  0  0  0  0  0  0  0  0  0  0  0
    6.9230   -1.6640   28.5680 C   0  0  0  0  0  0  0  0  0  0  0  0
    7.1670   -0.3550   29.3090 C   0  0  0  0  0  0  0  0  0  0  0  0
    6.6320    0.8160   28.5860 C   0  0  0  0  0  0  0  0  0  0  0  0
    5.9780    0.7810   27.3660 C   0  0  0  0  0  0  0  0  0  0  0  0
    5.7630   -0.4170   26.7080 C   0  0  0  0  0  0  0  0  0  0  0  0
    5.1000   -0.3710   25.5020 O   0  0  0  0  0  0  0  0  0  0  0  0
    3.7310   -0.6330   25.6240 C   0  0  0  0  0  0  0  0  0  0  0  0
    6.9480   -2.6090   23.1950 C   0  0  0  0  0  0  0  0  0  0  0  0
    7.7670   -3.2630   22.1230 C   0  0  0  0  0  0  0  0  0  0  0  0
  1  2  1  0
  2  3  2  0
  2  4  1  0
  4  5  1  0
  5  6  1  0
  6  7  1  0
  7  8  1  0
  8  9  2  0
  8 10  1  0
 10 11  1  0
 11 12  2  0
 12 13  1  0
 13 14  2  0
 14 15  1  0
 15 16  2  0
 16 17  1  0
 13 18  1  0
 17 18  2  0
 11 19  1  0
 18 19  1  0
 10 20  1  0
 20 21  2  0
 21 22  1  0
 22 23  2  0
 23 24  1  0
 20 25  1  0
 24 25  2  0
 25 26  1  0
 26 27  1  0
  7 28  1  0
  4 29  1  0
 28 29  1  0
M  END
