piperidine-amides-14983-covalent
     RDKit          3D

 21 22  0  0  0  0  0  0  0  0999 V2000
    7.0710   -3.3340   19.3020 C   0  0  0  0  0  0  0  0  0  0  0  0
    6.4040   -4.1730   20.2930 C   0  0  0  0  0  0  0  0  0  0  0  0
    5.3600   -4.7630   19.9590 O   0  0  0  0  0  0  0  0  0  0  0  0
    6.9740   -4.3420   21.5780 N   0  0  0  0  0  0  0  0  0  0  0  0
    6.4410   -5.3770   22.4070 C   0  0  0  0  0  0  0  0  0  0  0  0
    5.5770   -4.7300   23.4540 C   0  0  0  0  0  0  0  0  0  0  0  0
    6.4870   -3.9190   24.3560 C   0  0  0  0  0  0  0  0  0  0  0  0
    5.7040   -3.3430   25.5030 C   0  0  0  0  0  0  0  0  0  0  0  0
    4.4810   -3.3660   25.3770 O   0  0  0  0  0  0  0  0  0  0  0  0
    6.3820   -2.8210   26.6060 N   0  0  0  0  0  0  0  0  0  0  0  0
    6.3820   -1.4140   26.8870 C   0  0  0  0  0  0  0  0  0  0  0  0
    5.8860    0.0100   26.0410 S   0  0  0  0  0  0  0  0  0  0  0  0
    6.3020    1.1650   27.2220 C   0  0  0  0  0  0  0  0  0  0  0  0
    6.2110    2.5350   27.2840 C   0  0  0  0  0  0  0  0  0  0  0  0
    5.0000    2.9700   27.7980 C   0  0  0  0  0  0  0  0  0  0  0  0
    4.9150    2.1510   29.0470 C   0  0  0  0  0  0  0  0  0  0  0  0
    6.8650    0.3850   28.3440 N   0  0  0  0  0  0  0  0  0  0  0  0
    6.8890   -0.9260   28.1560 C   0  0  0  0  0  0  0  0  0  0  0  0
    7.4030   -1.8230   29.1960 C   0  0  0  0  0  0  0  0  0  0  0  0
    7.2370   -2.8830   23.5980 C   0  0  0  0  0  0  0  0  0  0  0  0
    7.6430   -3.2050   22.1530 C   0  0  0  0  0  0  0  0  0  0  0  0
  1  2  1  0
  2  3  2  0
  2  4  1  0
  4  5  1  0
  5  6  1  0
  6  7  1  0
  7  8  1  0
  8  9  2  0
  8 10  1  0
 10 11  1  0
 11 12  1  0
 12 13  1  0
 13 14  1  0
 14 15  1  0
 15 16  1  0
 13 17  2  0
 11 18  2  0
 17 18  1  0
 18 19  1  0
  7 20  1  0
  4 21  1  0
 20 21  1  0
M  END
