piperidine-amides-2375-covalent
     RDKit          3D

 27 29  0  0  0  0  0  0  0  0999 V2000
    7.1100   -3.3290   19.3150 C   0  0  0  0  0  0  0  0  0  0  0  0
    6.3690   -4.1400   20.3060 C   0  0  0  0  0  0  0  0  0  0  0  0
    5.3270   -4.6760   19.9330 O   0  0  0  0  0  0  0  0  0  0  0  0
    6.9000   -4.3050   21.5840 N   0  0  0  0  0  0  0  0  0  0  0  0
    7.6930   -3.2780   22.2010 C   0  0  0  0  0  0  0  0  0  0  0  0
    6.9370   -2.7290   23.3660 C   0  0  0  0  0  0  0  0  0  0  0  0
    6.4450   -3.8850   24.2370 C   0  0  0  0  0  0  0  0  0  0  0  0
    5.7460   -3.2780   25.3880 C   0  0  0  0  0  0  0  0  0  0  0  0
    4.5120   -3.1850   25.3670 O   0  0  0  0  0  0  0  0  0  0  0  0
    6.4700   -2.8020   26.5010 N   0  0  0  0  0  0  0  0  0  0  0  0
    5.8990   -1.7560   27.3230 C   0  0  0  0  0  0  0  0  0  0  0  0
    6.8940   -1.4940   28.4310 C   0  0  0  0  0  0  0  0  0  0  0  0
    6.7330   -0.4520   29.2640 C   0  0  0  0  0  0  0  0  0  0  0  0
    5.7160    0.4910   29.0750 N   0  0  0  0  0  0  0  0  0  0  0  0
    4.5440    0.0780   30.2710 S   0  0  0  0  0  0  0  0  0  0  0  0
    3.2380    0.6540   29.8310 O   0  0  0  0  0  0  0  0  0  0  0  0
    4.4300   -1.4120   30.4080 O   0  0  0  0  0  0  0  0  0  0  0  0
    4.8950    0.8430   31.8810 C   0  0  0  0  0  0  0  0  0  0  0  0
    5.1060    0.1690   33.0760 C   0  0  0  0  0  0  0  0  0  0  0  0
    5.3490    0.9970   34.1340 N   0  0  0  0  0  0  0  0  0  0  0  0
    5.3230    2.2680   33.7570 N   0  0  0  0  0  0  0  0  0  0  0  0
    5.5200    3.4460   34.5210 C   0  0  0  0  0  0  0  0  0  0  0  0
    5.0400    2.2080   32.3420 C   0  0  0  0  0  0  0  0  0  0  0  0
    5.2380    0.5510   27.7080 C   0  0  0  0  0  0  0  0  0  0  0  0
    5.7210   -0.4190   26.6510 C   0  0  0  0  0  0  0  0  0  0  0  0
    5.6040   -4.8920   23.4950 C   0  0  0  0  0  0  0  0  0  0  0  0
    6.4880   -5.4300   22.3830 C   0  0  0  0  0  0  0  0  0  0  0  0
  1  2  1  0
  2  3  2  0
  2  4  1  0
  4  5  1  0
  5  6  1  0
  6  7  1  0
  7  8  1  0
  8  9  2  0
  8 10  1  0
 10 11  1  0
 11 12  1  0
 12 13  1  0
 13 14  1  0
 14 15  1  0
 15 16  2  0
 15 17  2  0
 15 18  1  0
 18 19  1  0
 19 20  2  0
 20 21  1  0
 21 22  1  0
 18 23  2  0
 21 23  1  0
 14 24  1  0
 11 25  1  0
 24 25  1  0
  7 26  1  0
  4 27  1  0
 26 27  1  0
M  END
