piperidine-amides-25415-covalent
     RDKit          3D

 25 27  0  0  0  0  0  0  0  0999 V2000
    7.0360   -3.3570   19.3610 C   0  0  0  0  0  0  0  0  0  0  0  0
    6.3930   -4.2550   20.3540 C   0  0  0  0  0  0  0  0  0  0  0  0
    5.3760   -4.8360   19.9790 O   0  0  0  0  0  0  0  0  0  0  0  0
    6.9550   -4.4630   21.6230 N   0  0  0  0  0  0  0  0  0  0  0  0
    6.6010   -5.6250   22.3780 C   0  0  0  0  0  0  0  0  0  0  0  0
    5.6800   -5.2040   23.4890 C   0  0  0  0  0  0  0  0  0  0  0  0
    6.3110   -4.1110   24.3690 C   0  0  0  0  0  0  0  0  0  0  0  0
    5.2520   -3.6620   25.3180 C   0  0  0  0  0  0  0  0  0  0  0  0
    4.1990   -3.1950   24.8800 O   0  0  0  0  0  0  0  0  0  0  0  0
    5.4530   -3.7490   26.7080 N   0  0  0  0  0  0  0  0  0  0  0  0
    6.7880   -3.8150   27.0210 C   0  0  0  0  0  0  0  0  0  0  0  0
    7.0620   -5.1930   27.5500 C   0  0  0  0  0  0  0  0  0  0  0  0
    6.6110   -5.4170   28.7690 C   0  0  0  0  0  0  0  0  0  0  0  0
    5.2900   -5.2150   28.8310 C   0  0  0  0  0  0  0  0  0  0  0  0
    4.4610   -5.7520   29.7870 C   0  0  0  0  0  0  0  0  0  0  0  0
    2.9600   -5.4750   29.7650 C   0  0  0  0  0  0  0  0  0  0  0  0
    2.3080   -6.1890   30.9080 C   0  0  0  0  0  0  0  0  0  0  0  0
    2.8950   -7.5730   30.7300 C   0  0  0  0  0  0  0  0  0  0  0  0
    3.0040   -5.7550   32.1780 C   0  0  0  0  0  0  0  0  0  0  0  0
    0.9540   -5.9770   31.0660 C   0  0  0  0  0  0  0  0  0  0  0  0
    2.3230   -4.6040   28.7110 C   0  0  0  0  0  0  0  0  0  0  0  0
    3.1960   -4.0180   27.6750 C   0  0  0  0  0  0  0  0  0  0  0  0
    4.6460   -4.3520   27.7770 C   0  0  0  0  0  0  0  0  0  0  0  0
    6.7300   -2.9370   23.4950 C   0  0  0  0  0  0  0  0  0  0  0  0
    7.5510   -3.3480   22.2980 C   0  0  0  0  0  0  0  0  0  0  0  0
  1  2  1  0
  2  3  2  0
  2  4  1  0
  4  5  1  0
  5  6  1  0
  6  7  1  0
  7  8  1  0
  8  9  2  0
  8 10  1  0
 10 11  1  0
 11 12  1  0
 12 13  1  0
 13 14  1  0
 14 15  2  0
 15 16  1  0
 16 17  1  0
 17 18  1  0
 17 19  1  0
 17 20  1  0
 16 21  2  0
 21 22  1  0
 10 23  1  0
 14 23  1  0
 22 23  2  0
  7 24  1  0
  4 25  1  0
 24 25  1  0
M  END
