piperidine-amides-4487-covalent
     RDKit          3D

 25 26  0  0  0  0  0  0  0  0999 V2000
    7.0620   -3.3220   19.2950 C   0  0  0  0  0  0  0  0  0  0  0  0
    6.3790   -4.1520   20.3120 C   0  0  0  0  0  0  0  0  0  0  0  0
    5.3480   -4.7540   19.9530 O   0  0  0  0  0  0  0  0  0  0  0  0
    6.9140   -4.2750   21.6000 N   0  0  0  0  0  0  0  0  0  0  0  0
    6.5490   -5.3670   22.4380 C   0  0  0  0  0  0  0  0  0  0  0  0
    6.1130   -4.9760   23.7860 C   0  0  0  0  0  0  0  0  0  0  0  0
    6.6780   -3.7050   24.3130 C   0  0  0  0  0  0  0  0  0  0  0  0
    5.8650   -3.2170   25.4640 C   0  0  0  0  0  0  0  0  0  0  0  0
    4.6290   -3.1520   25.3020 O   0  0  0  0  0  0  0  0  0  0  0  0
    6.4340   -2.8260   26.7040 N   0  0  0  0  0  0  0  0  0  0  0  0
    6.3790   -1.3990   27.1240 C   0  0  0  0  0  0  0  0  0  0  0  0
    5.8540   -0.4140   26.1670 C   0  0  0  0  0  0  0  0  0  0  0  0
    5.7750    0.9790   26.5430 C   0  0  0  0  0  0  0  0  0  0  0  0
    6.2050    1.3240   27.7990 C   0  0  0  0  0  0  0  0  0  0  0  0
    6.7020    0.4200   28.7090 C   0  0  0  0  0  0  0  0  0  0  0  0
    6.8030   -0.9080   28.4230 C   0  0  0  0  0  0  0  0  0  0  0  0
    7.3110   -1.6670   29.4520 N   0  0  0  0  0  0  0  0  0  0  0  0
    7.1020   -0.9150   30.6470 C   0  0  0  0  0  0  0  0  0  0  0  0
    6.0170   -0.7300   31.2320 O   0  0  0  0  0  0  0  0  0  0  0  0
    8.1490   -0.3080   31.2360 N   0  0  0  0  0  0  0  0  0  0  0  0
    7.7430    0.7930   31.8850 C   0  0  0  0  0  0  0  0  0  0  0  0
    8.8930    1.5230   32.2000 C   0  0  0  0  0  0  0  0  0  0  0  0
    7.3260    0.3230   33.1150 C   0  0  0  0  0  0  0  0  0  0  0  0
    6.8200   -2.6330   23.3050 C   0  0  0  0  0  0  0  0  0  0  0  0
    7.6560   -3.1870   22.1970 C   0  0  0  0  0  0  0  0  0  0  0  0
  1  2  1  0
  2  3  2  0
  2  4  1  0
  4  5  1  0
  5  6  1  0
  6  7  1  0
  7  8  1  0
  8  9  2  0
  8 10  1  0
 10 11  1  0
 11 12  2  0
 12 13  1  0
 13 14  2  0
 14 15  1  0
 11 16  1  0
 15 16  2  0
 16 17  1  0
 17 18  1  0
 18 19  2  0
 18 20  1  0
 20 21  1  0
 21 22  1  0
 21 23  1  0
  7 24  1  0
  4 25  1  0
 24 25  1  0
M  END
