piperidine-amides-28855-covalent
     RDKit          3D

 25 27  0  0  0  0  0  0  0  0999 V2000
    7.0670   -3.3750   19.4480 C   0  0  0  0  0  0  0  0  0  0  0  0
    6.3910   -4.2260   20.4220 C   0  0  0  0  0  0  0  0  0  0  0  0
    5.4280   -4.8980   20.0060 O   0  0  0  0  0  0  0  0  0  0  0  0
    6.8520   -4.3320   21.7720 N   0  0  0  0  0  0  0  0  0  0  0  0
    6.5860   -5.5620   22.4660 C   0  0  0  0  0  0  0  0  0  0  0  0
    6.5480   -5.3410   23.9560 C   0  0  0  0  0  0  0  0  0  0  0  0
    6.2220   -3.8870   24.2010 C   0  0  0  0  0  0  0  0  0  0  0  0
    5.5600   -3.6340   25.5570 C   0  0  0  0  0  0  0  0  0  0  0  0
    4.3410   -3.6420   25.4380 O   0  0  0  0  0  0  0  0  0  0  0  0
    6.1500   -3.3830   26.8340 N   0  0  0  0  0  0  0  0  0  0  0  0
    5.1740   -3.0020   27.8210 C   0  0  0  0  0  0  0  0  0  0  0  0
    4.2490   -3.9990   28.3080 C   0  0  0  0  0  0  0  0  0  0  0  0
    4.9380   -5.3120   28.4210 N   0  0  0  0  0  0  0  0  0  0  0  0
    4.5280   -6.5360   29.0030 C   0  0  0  0  0  0  0  0  0  0  0  0
    4.3530   -6.5800   30.3760 C   0  0  0  0  0  0  0  0  0  0  0  0
    5.3860   -7.4120   31.0130 C   0  0  0  0  0  0  0  0  0  0  0  0
    5.3400   -7.5720   32.5390 C   0  0  0  0  0  0  0  0  0  0  0  0
    4.2290   -6.8510   33.2440 C   0  0  0  0  0  0  0  0  0  0  0  0
    4.0400   -6.9350   34.9810 Cl  0  0  0  0  0  0  0  0  0  0  0  0
    3.2890   -6.0530   32.3440 C   0  0  0  0  0  0  0  0  0  0  0  0
    3.3320   -5.9160   31.0060 N   0  0  0  0  0  0  0  0  0  0  0  0
    6.3140   -5.2680   28.2190 C   0  0  0  0  0  0  0  0  0  0  0  0
    6.5480   -3.9520   28.1100 C   0  0  0  0  0  0  0  0  0  0  0  0
    7.4410   -3.1000   23.8520 C   0  0  0  0  0  0  0  0  0  0  0  0
    7.6150   -3.2250   22.3450 C   0  0  0  0  0  0  0  0  0  0  0  0
  1  2  1  0
  2  3  2  0
  2  4  1  0
  4  5  1  0
  5  6  1  0
  6  7  1  0
  7  8  1  0
  8  9  2  0
  8 10  1  0
 10 11  1  0
 11 12  1  0
 12 13  1  0
 13 14  1  0
 14 15  1  0
 15 16  2  0
 16 17  1  0
 17 18  2  0
 18 19  1  0
 18 20  1  0
 15 21  1  0
 20 21  2  0
 13 22  1  0
 10 23  1  0
 22 23  1  0
  7 24  1  0
  4 25  1  0
 24 25  1  0
M  END
