piperidine-amides-19739-covalent
     RDKit          3D

 22 23  0  0  0  0  0  0  0  0999 V2000
    7.0320   -3.2600   19.2260 C   0  0  0  0  0  0  0  0  0  0  0  0
    6.2140   -4.0320   20.2020 C   0  0  0  0  0  0  0  0  0  0  0  0
    5.1480   -4.4800   19.8190 O   0  0  0  0  0  0  0  0  0  0  0  0
    6.6840   -4.2620   21.4820 N   0  0  0  0  0  0  0  0  0  0  0  0
    6.3380   -5.4650   22.2150 C   0  0  0  0  0  0  0  0  0  0  0  0
    5.6200   -5.1100   23.4960 C   0  0  0  0  0  0  0  0  0  0  0  0
    6.4110   -4.0160   24.2060 C   0  0  0  0  0  0  0  0  0  0  0  0
    5.7660   -3.6490   25.4850 C   0  0  0  0  0  0  0  0  0  0  0  0
    4.5190   -3.6000   25.5960 O   0  0  0  0  0  0  0  0  0  0  0  0
    6.6030   -3.3220   26.5820 N   0  0  0  0  0  0  0  0  0  0  0  0
    7.1160   -4.4170   27.3870 C   0  0  0  0  0  0  0  0  0  0  0  0
    7.4180   -2.1730   26.4000 C   0  0  0  0  0  0  0  0  0  0  0  0
    8.2660   -2.4260   25.3600 C   0  0  0  0  0  0  0  0  0  0  0  0
    8.7970   -3.6110   25.0770 C   0  0  0  0  0  0  0  0  0  0  0  0
    9.6460   -3.5350   23.9280 N   0  0  0  0  0  0  0  0  0  0  0  0
    9.6390   -2.2830   23.5060 N   0  0  0  0  0  0  0  0  0  0  0  0
   10.3690   -1.7020   22.3980 C   0  0  0  0  0  0  0  0  0  0  0  0
   10.8970   -0.2950   22.6210 C   0  0  0  0  0  0  0  0  0  0  0  0
   12.3460   -0.7070   22.6350 C   0  0  0  0  0  0  0  0  0  0  0  0
    8.7930   -1.5000   24.3220 C   0  0  0  0  0  0  0  0  0  0  0  0
    6.6910   -2.8500   23.3510 C   0  0  0  0  0  0  0  0  0  0  0  0
    7.4300   -3.2270   22.1270 C   0  0  0  0  0  0  0  0  0  0  0  0
  1  2  1  0
  2  3  2  0
  2  4  1  0
  4  5  1  0
  5  6  1  0
  6  7  1  0
  7  8  1  0
  8  9  2  0
  8 10  1  0
 10 11  1  0
 10 12  1  0
 12 13  1  0
 13 14  1  0
 14 15  2  0
 15 16  1  0
 16 17  1  0
 17 18  1  0
 18 19  1  0
 13 20  2  0
 16 20  1  0
  7 21  1  0
  4 22  1  0
 21 22  1  0
M  END
