piperidine-amides-4822-covalent
     RDKit          3D

 23 25  0  0  0  0  0  0  0  0999 V2000
    7.1260   -3.2990   19.2560 C   0  0  0  0  0  0  0  0  0  0  0  0
    6.3490   -4.0520   20.2570 C   0  0  0  0  0  0  0  0  0  0  0  0
    5.2750   -4.5610   19.8850 O   0  0  0  0  0  0  0  0  0  0  0  0
    6.8460   -4.2210   21.5460 N   0  0  0  0  0  0  0  0  0  0  0  0
    7.5310   -3.1420   22.1940 C   0  0  0  0  0  0  0  0  0  0  0  0
    7.0010   -2.7910   23.5120 C   0  0  0  0  0  0  0  0  0  0  0  0
    6.5610   -3.9660   24.2820 C   0  0  0  0  0  0  0  0  0  0  0  0
    5.8580   -3.6150   25.5480 C   0  0  0  0  0  0  0  0  0  0  0  0
    5.4440   -4.5470   26.2430 O   0  0  0  0  0  0  0  0  0  0  0  0
    5.5910   -2.3040   25.9780 N   0  0  0  0  0  0  0  0  0  0  0  0
    6.5670   -1.3300   26.5140 C   0  0  1  0  0  0  0  0  0  0  0  0
    6.0140    0.0640   26.3000 C   0  0  0  0  0  0  0  0  0  0  0  0
    6.3810    1.1890   27.1940 C   0  0  0  0  0  0  0  0  0  0  0  0
    5.5040    1.6060   28.0310 O   0  0  0  0  0  0  0  0  0  0  0  0
    5.3570    0.6720   29.0560 C   0  0  0  0  0  0  0  0  0  0  0  0
    5.6210   -0.7000   29.5850 C   0  0  0  0  0  0  0  0  0  0  0  0
    5.1360   -1.0040   30.7590 C   0  0  0  0  0  0  0  0  0  0  0  0
    4.6650    0.0990   30.8600 C   0  0  0  0  0  0  0  0  0  0  0  0
    5.4350   -0.3000   29.6510 C   0  0  0  0  0  0  0  0  0  0  0  0
    6.0090   -0.0620   28.3440 C   0  0  0  0  0  0  0  0  0  0  0  0
    6.6590   -1.3370   28.0290 C   0  0  0  0  0  0  0  0  0  0  0  0
    5.7320   -4.9240   23.5030 C   0  0  0  0  0  0  0  0  0  0  0  0
    6.5060   -5.3930   22.3130 C   0  0  0  0  0  0  0  0  0  0  0  0
  1  2  1  0
  2  3  2  0
  2  4  1  0
  4  5  1  0
  5  6  1  0
  6  7  1  0
  7  8  1  0
  8  9  2  0
  8 10  1  0
 11 10  1  1
 11 12  1  0
 12 13  1  0
 13 14  1  0
 14 15  1  0
 15 16  1  0
 16 17  2  0
 17 18  1  0
 18 19  2  0
 15 20  2  0
 19 20  1  0
 11 21  1  0
 20 21  1  0
  7 22  1  0
  4 23  1  0
 22 23  1  0
M  END
