piperidine-amides-14763-covalent
     RDKit          3D

 22 24  0  0  0  0  0  0  0  0999 V2000
    7.0750   -3.3420   19.3080 C   0  0  0  0  0  0  0  0  0  0  0  0
    6.4220   -4.1970   20.2940 C   0  0  0  0  0  0  0  0  0  0  0  0
    5.3690   -4.7680   19.9640 O   0  0  0  0  0  0  0  0  0  0  0  0
    7.0170   -4.4150   21.5630 N   0  0  0  0  0  0  0  0  0  0  0  0
    7.6340   -3.3110   22.2300 C   0  0  0  0  0  0  0  0  0  0  0  0
    6.6770   -2.7670   23.2520 C   0  0  0  0  0  0  0  0  0  0  0  0
    6.4090   -3.8610   24.2700 C   0  0  0  0  0  0  0  0  0  0  0  0
    5.4850   -3.3390   25.3480 C   0  0  0  0  0  0  0  0  0  0  0  0
    4.2740   -3.3940   25.0820 O   0  0  0  0  0  0  0  0  0  0  0  0
    6.0280   -2.7970   26.5510 N   0  0  0  0  0  0  0  0  0  0  0  0
    6.1520   -1.3850   26.5970 C   0  0  0  0  0  0  0  0  0  0  0  0
    6.2970   -0.1470   26.7930 C   0  0  0  0  0  0  0  0  0  0  0  0
    6.2060    1.0050   26.0480 C   0  0  0  0  0  0  0  0  0  0  0  0
    5.9560   -1.2300   25.7410 N   0  0  0  0  0  0  0  0  0  0  0  0
    6.0560   -2.3790   26.6410 N   0  0  0  0  0  0  0  0  0  0  0  0
    5.8530   -3.7140   26.4260 C   0  0  0  0  0  0  0  0  0  0  0  0
    5.9260   -4.8610   27.3560 C   0  0  0  0  0  0  0  0  0  0  0  0
    6.3190   -4.3050   28.6840 C   0  0  0  0  0  0  0  0  0  0  0  0
    6.5350   -2.9070   28.8670 N   0  0  0  0  0  0  0  0  0  0  0  0
    6.4150   -1.8030   27.8860 C   0  0  0  0  0  0  0  0  0  0  0  0
    5.8800   -5.1040   23.6360 C   0  0  0  0  0  0  0  0  0  0  0  0
    6.5400   -5.5400   22.3120 C   0  0  0  0  0  0  0  0  0  0  0  0
  1  2  1  0
  2  3  2  0
  2  4  1  0
  4  5  1  0
  5  6  1  0
  6  7  1  0
  7  8  1  0
  8  9  2  0
  8 10  1  0
 10 11  1  0
 11 12  1  0
 12 13  1  0
 12 14  2  0
 14 15  1  0
 15 16  1  0
 16 17  2  0
 17 18  1  0
 18 19  2  0
 11 20  2  0
 15 20  1  0
 19 20  1  0
  7 21  1  0
  4 22  1  0
 21 22  1  0
M  END
