piperidine-amides-14743-covalent
     RDKit          3D

 22 24  0  0  0  0  0  0  0  0999 V2000
    7.1240   -3.2870   19.2260 C   0  0  0  0  0  0  0  0  0  0  0  0
    6.3330   -4.0030   20.2210 C   0  0  0  0  0  0  0  0  0  0  0  0
    5.2580   -4.5150   19.8680 O   0  0  0  0  0  0  0  0  0  0  0  0
    6.8240   -4.1480   21.5400 N   0  0  0  0  0  0  0  0  0  0  0  0
    6.5220   -5.3410   22.2780 C   0  0  0  0  0  0  0  0  0  0  0  0
    5.7910   -4.9500   23.5280 C   0  0  0  0  0  0  0  0  0  0  0  0
    6.6010   -3.8290   24.1380 C   0  0  0  0  0  0  0  0  0  0  0  0
    5.8570   -3.2180   25.2850 C   0  0  0  0  0  0  0  0  0  0  0  0
    4.6360   -3.1280   25.1720 O   0  0  0  0  0  0  0  0  0  0  0  0
    6.6010   -2.7890   26.3800 N   0  0  0  0  0  0  0  0  0  0  0  0
    6.2500   -3.0820   27.7290 C   0  0  0  0  0  0  0  0  0  0  0  0
    5.8290   -4.3900   27.9980 C   0  0  0  0  0  0  0  0  0  0  0  0
    6.7350   -5.0830   28.9110 N   0  0  0  0  0  0  0  0  0  0  0  0
    6.1710   -6.2170   29.0150 N   0  0  0  0  0  0  0  0  0  0  0  0
    4.9890   -6.2660   28.2340 C   0  0  0  0  0  0  0  0  0  0  0  0
    4.6210   -5.1190   27.4900 C   0  0  0  0  0  0  0  0  0  0  0  0
    3.3970   -5.0540   26.6330 C   0  0  0  0  0  0  0  0  0  0  0  0
    2.5030   -6.2560   27.0010 C   0  0  0  0  0  0  0  0  0  0  0  0
    3.3940   -7.4340   26.8690 C   0  0  0  0  0  0  0  0  0  0  0  0
    4.1700   -7.3680   28.1570 C   0  0  0  0  0  0  0  0  0  0  0  0
    6.9790   -2.7250   23.2510 C   0  0  0  0  0  0  0  0  0  0  0  0
    7.6810   -3.1620   22.1600 C   0  0  0  0  0  0  0  0  0  0  0  0
  1  2  1  0
  2  3  2  0
  2  4  1  0
  4  5  1  0
  5  6  1  0
  6  7  1  0
  7  8  1  0
  8  9  2  0
  8 10  1  0
 10 11  1  0
 11 12  1  0
 12 13  1  0
 13 14  1  0
 14 15  2  0
 12 16  2  0
 15 16  1  0
 16 17  1  0
 17 18  1  0
 18 19  1  0
 15 20  1  0
 19 20  1  0
  7 21  1  0
  4 22  1  0
 21 22  1  0
M  END
