piperidine-amides-11816-covalent
     RDKit          3D

 27 29  0  0  0  0  0  0  0  0999 V2000
    7.0370   -3.3410   19.4020 C   0  0  0  0  0  0  0  0  0  0  0  0
    6.3750   -4.2100   20.3720 C   0  0  0  0  0  0  0  0  0  0  0  0
    5.4170   -4.8940   20.0000 O   0  0  0  0  0  0  0  0  0  0  0  0
    6.8510   -4.3130   21.7360 N   0  0  0  0  0  0  0  0  0  0  0  0
    7.6410   -3.2480   22.3390 C   0  0  0  0  0  0  0  0  0  0  0  0
    7.1320   -2.8990   23.7210 C   0  0  0  0  0  0  0  0  0  0  0  0
    5.7540   -3.5240   23.8150 C   0  0  0  0  0  0  0  0  0  0  0  0
    4.9060   -3.0980   24.9880 C   0  0  0  0  0  0  0  0  0  0  0  0
    3.7110   -2.8190   24.8190 O   0  0  0  0  0  0  0  0  0  0  0  0
    5.3730   -2.9930   26.3190 N   0  0  0  0  0  0  0  0  0  0  0  0
    5.6260   -1.6670   26.9160 C   0  0  0  0  0  0  0  0  0  0  0  0
    5.8090   -0.3690   26.1820 C   0  0  0  0  0  0  0  0  0  0  0  0
    6.0710    0.8070   26.8890 C   0  0  0  0  0  0  0  0  0  0  0  0
    6.1800    0.8280   28.2930 C   0  0  0  0  0  0  0  0  0  0  0  0
    6.4560    2.0240   28.9920 N   0  0  0  0  0  0  0  0  0  0  0  0
    6.0250   -0.2990   29.0550 C   0  0  0  0  0  0  0  0  0  0  0  0
    5.7430   -1.5620   28.4280 C   0  0  0  0  0  0  0  0  0  0  0  0
    5.8310   -4.1690   26.9810 C   0  0  0  0  0  0  0  0  0  0  0  0
    6.8670   -4.9420   26.4980 C   0  0  0  0  0  0  0  0  0  0  0  0
    7.3350   -6.0360   27.1540 C   0  0  0  0  0  0  0  0  0  0  0  0
    6.6590   -6.3390   28.3880 C   0  0  0  0  0  0  0  0  0  0  0  0
    5.6220   -5.6200   28.9030 C   0  0  0  0  0  0  0  0  0  0  0  0
    5.0670   -6.0190   30.0780 O   0  0  0  0  0  0  0  0  0  0  0  0
    5.1740   -7.1920   30.7840 C   0  0  0  0  0  0  0  0  0  0  0  0
    5.2030   -4.5160   28.1890 C   0  0  0  0  0  0  0  0  0  0  0  0
    5.7670   -5.0170   23.7170 C   0  0  0  0  0  0  0  0  0  0  0  0
    6.5490   -5.4920   22.5050 C   0  0  0  0  0  0  0  0  0  0  0  0
  1  2  1  0
  2  3  2  0
  2  4  1  0
  4  5  1  0
  5  6  1  0
  6  7  1  0
  7  8  1  0
  8  9  2  0
  8 10  1  0
 10 11  1  0
 11 12  2  0
 12 13  1  0
 13 14  2  0
 14 15  1  0
 14 16  1  0
 11 17  1  0
 16 17  2  0
 10 18  1  0
 18 19  2  0
 19 20  1  0
 20 21  2  0
 21 22  1  0
 22 23  1  0
 23 24  1  0
 18 25  1  0
 22 25  2  0
  7 26  1  0
  4 27  1  0
 26 27  1  0
M  END
