piperidine-amides-25938-covalent
     RDKit          3D

 25 26  0  0  0  0  0  0  0  0999 V2000
    7.0670   -3.2370   19.1380 C   0  0  0  0  0  0  0  0  0  0  0  0
    6.3140   -3.9730   20.1590 C   0  0  0  0  0  0  0  0  0  0  0  0
    5.2590   -4.5500   19.8640 O   0  0  0  0  0  0  0  0  0  0  0  0
    6.7930   -4.0710   21.4610 N   0  0  0  0  0  0  0  0  0  0  0  0
    7.5990   -3.0210   22.0220 C   0  0  0  0  0  0  0  0  0  0  0  0
    7.5140   -3.1930   23.5020 C   0  0  0  0  0  0  0  0  0  0  0  0
    6.1860   -3.7110   23.9600 C   0  0  0  0  0  0  0  0  0  0  0  0
    5.9640   -3.4760   25.4030 C   0  0  0  0  0  0  0  0  0  0  0  0
    4.8200   -3.6900   25.9120 O   0  0  0  0  0  0  0  0  0  0  0  0
    6.9760   -2.9770   26.2670 N   0  0  0  0  0  0  0  0  0  0  0  0
    6.8060   -1.6000   26.7660 C   0  0  0  0  0  0  0  0  0  0  0  0
    7.7940   -3.8730   27.1310 C   0  0  0  0  0  0  0  0  0  0  0  0
    8.6420   -4.8550   26.4030 C   0  0  0  0  0  0  0  0  0  0  0  0
    9.3560   -5.2720   25.4800 O   0  0  0  0  0  0  0  0  0  0  0  0
    8.6200   -3.6240   25.5880 N   0  0  0  0  0  0  0  0  0  0  0  0
   10.0650   -3.2430   25.4600 C   0  0  0  0  0  0  0  0  0  0  0  0
   11.1150   -4.1640   26.0700 C   0  0  0  0  0  0  0  0  0  0  0  0
   12.5200   -3.7050   25.9430 C   0  0  0  0  0  0  0  0  0  0  0  0
   13.7980   -4.0250   26.2870 C   0  0  0  0  0  0  0  0  0  0  0  0
   13.0370   -2.4830   25.2680 C   0  0  0  0  0  0  0  0  0  0  0  0
   12.0250   -1.5880   24.6580 C   0  0  0  0  0  0  0  0  0  0  0  0
   10.5380   -1.9550   24.7560 C   0  0  0  0  0  0  0  0  0  0  0  0
    9.5200   -1.0250   24.1510 C   0  0  0  0  0  0  0  0  0  0  0  0
    6.0530   -5.1380   23.5360 C   0  0  0  0  0  0  0  0  0  0  0  0
    6.5300   -5.3050   22.1440 C   0  0  0  0  0  0  0  0  0  0  0  0
  1  2  1  0
  2  3  2  0
  2  4  1  0
  4  5  1  0
  5  6  1  0
  6  7  1  0
  7  8  1  0
  8  9  2  0
  8 10  1  0
 10 11  1  0
 10 12  1  0
 12 13  1  0
 13 14  2  0
 13 15  1  0
 15 16  1  0
 16 17  2  0
 17 18  1  0
 18 19  1  0
 18 20  2  0
 20 21  1  0
 16 22  1  0
 21 22  2  0
 22 23  1  0
  7 24  1  0
  4 25  1  0
 24 25  1  0
M  END
