piperidine-amides-33381-covalent
     RDKit          3D

 25 27  0  0  0  0  0  0  0  0999 V2000
    7.0420   -3.3610   19.3380 C   0  0  0  0  0  0  0  0  0  0  0  0
    6.3910   -4.2090   20.3480 C   0  0  0  0  0  0  0  0  0  0  0  0
    5.3570   -4.8150   19.9770 O   0  0  0  0  0  0  0  0  0  0  0  0
    6.9330   -4.3960   21.6520 N   0  0  0  0  0  0  0  0  0  0  0  0
    6.5030   -5.5160   22.4020 C   0  0  0  0  0  0  0  0  0  0  0  0
    5.8710   -5.1800   23.6800 C   0  0  0  0  0  0  0  0  0  0  0  0
    6.2190   -3.8580   24.2560 C   0  0  0  0  0  0  0  0  0  0  0  0
    5.1440   -3.4070   25.2360 C   0  0  0  0  0  0  0  0  0  0  0  0
    4.0820   -2.9390   24.8150 O   0  0  0  0  0  0  0  0  0  0  0  0
    5.3600   -3.5410   26.6210 N   0  0  0  0  0  0  0  0  0  0  0  0
    6.4640   -4.1050   27.1120 C   0  0  0  0  0  0  0  0  0  0  0  0
    6.5300   -4.2290   28.5240 C   0  0  0  0  0  0  0  0  0  0  0  0
    5.1320   -3.6660   28.8530 C   0  0  0  0  0  0  0  0  0  0  0  0
    4.4010   -3.3800   27.6850 C   0  0  1  0  0  0  0  0  0  0  0  0
    4.1910   -1.9450   28.2090 C   0  0  0  0  0  0  0  0  0  0  0  0
    3.8230   -2.1050   29.6520 C   0  0  0  0  0  0  0  0  0  0  0  0
    3.6050   -0.6710   30.2100 C   0  0  0  0  0  0  0  0  0  0  0  0
    3.7020    0.7080   29.5640 C   0  0  0  0  0  0  0  0  0  0  0  0
    3.3870    2.3610   30.4490 Br  0  0  0  0  0  0  0  0  0  0  0  0
    4.0850    0.6400   28.1010 C   0  0  0  0  0  0  0  0  0  0  0  0
    4.3330   -0.6900   27.4070 C   0  0  0  0  0  0  0  0  0  0  0  0
    4.6480   -0.6540   26.1710 O   0  0  0  0  0  0  0  0  0  0  0  0
    3.6340   -0.6390   25.1980 C   0  0  0  0  0  0  0  0  0  0  0  0
    6.5820   -2.8120   23.2450 C   0  0  0  0  0  0  0  0  0  0  0  0
    7.5350   -3.3000   22.3610 C   0  0  0  0  0  0  0  0  0  0  0  0
  1  2  1  0
  2  3  2  0
  2  4  1  0
  4  5  1  0
  5  6  1  0
  6  7  1  0
  7  8  1  0
  8  9  2  0
  8 10  1  0
 10 11  1  0
 11 12  1  0
 12 13  1  0
 10 14  1  0
 13 14  1  0
 14 15  1  1
 15 16  2  0
 16 17  1  0
 17 18  2  0
 18 19  1  0
 18 20  1  0
 15 21  1  0
 20 21  2  0
 21 22  1  0
 22 23  1  0
  7 24  1  0
  4 25  1  0
 24 25  1  0
M  END
