piperidine-amides-30771-covalent
     RDKit          3D

 26 28  0  0  0  0  0  0  0  0999 V2000
    7.0860   -3.3180   19.2690 C   0  0  0  0  0  0  0  0  0  0  0  0
    6.3810   -4.0910   20.2930 C   0  0  0  0  0  0  0  0  0  0  0  0
    5.3880   -4.7670   19.9680 O   0  0  0  0  0  0  0  0  0  0  0  0
    6.8440   -4.1070   21.6170 N   0  0  0  0  0  0  0  0  0  0  0  0
    7.8030   -3.1400   22.0970 C   0  0  0  0  0  0  0  0  0  0  0  0
    7.3760   -2.7630   23.4770 C   0  0  0  0  0  0  0  0  0  0  0  0
    6.5890   -3.8340   24.1660 C   0  0  0  0  0  0  0  0  0  0  0  0
    5.7300   -3.2450   25.2110 C   0  0  0  0  0  0  0  0  0  0  0  0
    4.6270   -2.7090   24.9000 O   0  0  0  0  0  0  0  0  0  0  0  0
    6.0600   -3.2470   26.5740 N   0  0  0  0  0  0  0  0  0  0  0  0
    6.2340   -1.9250   27.2550 C   0  0  0  0  0  0  0  0  0  0  0  0
    6.9340   -1.8640   28.5450 C   0  0  0  0  0  0  0  0  0  0  0  0
    7.1010   -0.5860   29.2320 C   0  0  0  0  0  0  0  0  0  0  0  0
    6.5500    0.6650   28.6070 C   0  0  0  0  0  0  0  0  0  0  0  0
    6.7310    1.8600   29.3030 F   0  0  0  0  0  0  0  0  0  0  0  0
    5.8240    0.6670   27.2720 C   0  0  0  0  0  0  0  0  0  0  0  0
    5.6970   -0.6830   26.6360 C   0  0  0  0  0  0  0  0  0  0  0  0
    5.5740   -4.3930   27.2980 C   0  0  2  0  0  0  0  0  0  0  0  0
    4.2760   -4.7570   26.9380 C   0  0  0  0  0  0  0  0  0  0  0  0
    3.3910   -5.3990   27.9560 C   0  0  0  0  0  0  0  0  0  0  0  0
    4.3520   -5.4700   29.3520 S   0  0  0  0  0  0  0  0  0  0  0  0
    3.5700   -5.0000   30.5140 O   0  0  0  0  0  0  0  0  0  0  0  0
    4.8780   -6.8760   29.5490 O   0  0  0  0  0  0  0  0  0  0  0  0
    5.6500   -4.2900   28.8620 C   0  0  0  0  0  0  0  0  0  0  0  0
    5.7760   -4.6590   23.1460 C   0  0  0  0  0  0  0  0  0  0  0  0
    6.5220   -5.2780   22.4220 C   0  0  0  0  0  0  0  0  0  0  0  0
  1  2  1  0
  2  3  2  0
  2  4  1  0
  4  5  1  0
  5  6  1  0
  6  7  1  0
  7  8  1  0
  8  9  2  0
  8 10  1  0
 10 11  1  0
 11 12  2  0
 12 13  1  0
 13 14  2  0
 14 15  1  0
 14 16  1  0
 11 17  1  0
 16 17  2  0
 18 10  1  6
 18 19  1  0
 19 20  2  0
 21 20  1  0
 21 22  2  0
 21 23  2  0
 18 24  1  0
 21 24  1  0
  7 25  1  0
  4 26  1  0
 25 26  1  0
M  END
