piperidine-amides-9107-covalent
     RDKit          3D

 21 22  0  0  0  0  0  0  0  0999 V2000
    7.1160   -3.2610   19.2040 C   0  0  0  0  0  0  0  0  0  0  0  0
    6.3570   -3.9940   20.2230 C   0  0  0  0  0  0  0  0  0  0  0  0
    5.3040   -4.5640   19.8940 O   0  0  0  0  0  0  0  0  0  0  0  0
    6.8150   -4.1100   21.5470 N   0  0  0  0  0  0  0  0  0  0  0  0
    6.6160   -5.3130   22.3200 C   0  0  0  0  0  0  0  0  0  0  0  0
    5.7320   -4.8930   23.4600 C   0  0  0  0  0  0  0  0  0  0  0  0
    5.8490   -3.4160   23.7480 C   0  0  0  0  0  0  0  0  0  0  0  0
    5.3010   -3.0290   25.0780 C   0  0  0  0  0  0  0  0  0  0  0  0
    4.0780   -3.2290   25.3250 O   0  0  0  0  0  0  0  0  0  0  0  0
    6.0460   -2.4380   26.1230 N   0  0  0  0  0  0  0  0  0  0  0  0
    6.3710   -3.2490   27.3080 C   0  0  1  0  0  0  0  0  0  0  0  0
    5.2470   -4.1180   27.7040 C   0  0  0  0  0  0  0  0  0  0  0  0
    5.1510   -4.4260   28.9160 O   0  0  0  0  0  0  0  0  0  0  0  0
    7.3610   -4.2570   26.8820 C   0  0  0  0  0  0  0  0  0  0  0  0
    8.1620   -4.5990   28.0680 C   0  0  0  0  0  0  0  0  0  0  0  0
    9.2290   -5.6240   27.8350 C   0  0  0  0  0  0  0  0  0  0  0  0
    9.3200   -6.1430   26.4550 C   0  0  0  0  0  0  0  0  0  0  0  0
    8.4750   -5.6940   25.5020 C   0  0  0  0  0  0  0  0  0  0  0  0
    7.5140   -4.7790   25.6710 C   0  0  0  0  0  0  0  0  0  0  0  0
    7.2710   -2.8560   23.5680 C   0  0  0  0  0  0  0  0  0  0  0  0
    7.6340   -3.0430   22.0910 C   0  0  0  0  0  0  0  0  0  0  0  0
  1  2  1  0
  2  3  2  0
  2  4  1  0
  4  5  1  0
  5  6  1  0
  6  7  1  0
  7  8  1  0
  8  9  2  0
  8 10  1  0
 10 11  1  0
 11 12  1  6
 12 13  1  0
 11 14  1  0
 14 15  2  0
 15 16  1  0
 16 17  2  0
 17 18  1  0
 14 19  1  0
 18 19  2  0
  7 20  1  0
  4 21  1  0
 20 21  1  0
M  END
