piperidine-amides-25254-covalent
     RDKit          3D

 24 24  0  0  0  0  0  0  0  0999 V2000
    7.1390   -3.2540   19.1920 C   0  0  0  0  0  0  0  0  0  0  0  0
    6.3900   -4.0360   20.2130 C   0  0  0  0  0  0  0  0  0  0  0  0
    5.3140   -4.5220   19.8760 O   0  0  0  0  0  0  0  0  0  0  0  0
    6.9470   -4.2330   21.4760 N   0  0  0  0  0  0  0  0  0  0  0  0
    7.7270   -3.2110   22.1170 C   0  0  0  0  0  0  0  0  0  0  0  0
    6.9630   -2.6970   23.2900 C   0  0  0  0  0  0  0  0  0  0  0  0
    6.5000   -3.8710   24.1500 C   0  0  0  0  0  0  0  0  0  0  0  0
    5.7330   -3.2840   25.2520 C   0  0  0  0  0  0  0  0  0  0  0  0
    4.5290   -3.0320   25.0970 O   0  0  0  0  0  0  0  0  0  0  0  0
    6.3430   -3.0080   26.4760 N   0  0  0  0  0  0  0  0  0  0  0  0
    6.7430   -1.6380   26.6930 C   0  0  0  0  0  0  0  0  0  0  0  0
    6.0260   -3.8850   27.5540 C   0  0  0  0  0  0  0  0  0  0  0  0
    6.4000   -3.3860   28.7500 C   0  0  0  0  0  0  0  0  0  0  0  0
    5.8760   -2.1850   29.2950 N   0  0  0  0  0  0  0  0  0  0  0  0
    4.4670   -2.0990   29.5980 C   0  0  0  0  0  0  0  0  0  0  0  0
    6.7560   -1.1260   29.7390 C   0  0  0  0  0  0  0  0  0  0  0  0
    6.1880    0.2740   29.6020 C   0  0  0  0  0  0  0  0  0  0  0  0
    7.0440    0.7980   30.7160 C   0  0  0  0  0  0  0  0  0  0  0  0
    6.4790    0.9340   31.9500 O   0  0  0  0  0  0  0  0  0  0  0  0
    8.3650    1.1350   30.4900 O   0  0  0  0  0  0  0  0  0  0  0  0
    9.4090    0.6190   31.3460 C   0  0  0  0  0  0  0  0  0  0  0  0
   10.6210    1.5010   31.3860 C   0  0  0  0  0  0  0  0  0  0  0  0
    5.7240   -4.9210   23.4030 C   0  0  0  0  0  0  0  0  0  0  0  0
    6.5620   -5.3940   22.2380 C   0  0  0  0  0  0  0  0  0  0  0  0
  1  2  1  0
  2  3  2  0
  2  4  1  0
  4  5  1  0
  5  6  1  0
  6  7  1  0
  7  8  1  0
  8  9  2  0
  8 10  1  0
 10 11  1  0
 10 12  1  0
 12 13  1  0
 13 14  1  0
 14 15  1  0
 14 16  1  0
 16 17  1  0
 17 18  1  0
 18 19  2  0
 18 20  1  0
 20 21  1  0
 21 22  1  0
  7 23  1  0
  4 24  1  0
 23 24  1  0
M  END
