piperidine-amides-33199-covalent
     RDKit          3D

 25 27  0  0  0  0  0  0  0  0999 V2000
    7.1460   -3.2630   19.2000 C   0  0  0  0  0  0  0  0  0  0  0  0
    6.3780   -4.0130   20.2040 C   0  0  0  0  0  0  0  0  0  0  0  0
    5.2710   -4.4810   19.8540 O   0  0  0  0  0  0  0  0  0  0  0  0
    6.9060   -4.2510   21.4890 N   0  0  0  0  0  0  0  0  0  0  0  0
    7.6150   -3.1950   22.1290 C   0  0  0  0  0  0  0  0  0  0  0  0
    7.3340   -3.0210   23.5480 C   0  0  0  0  0  0  0  0  0  0  0  0
    6.4910   -4.0540   24.1930 C   0  0  0  0  0  0  0  0  0  0  0  0
    5.7210   -3.4550   25.3220 C   0  0  0  0  0  0  0  0  0  0  0  0
    4.4780   -3.4350   25.2650 O   0  0  0  0  0  0  0  0  0  0  0  0
    6.3510   -2.9010   26.4460 N   0  0  0  0  0  0  0  0  0  0  0  0
    6.8920   -1.5930   26.4990 C   0  0  0  0  0  0  0  0  0  0  0  0
    5.7730   -3.3500   27.6950 C   0  0  1  0  0  0  0  0  0  0  0  0
    6.5410   -4.3820   28.5460 C   0  0  0  0  0  0  0  0  0  0  0  0
    5.2240   -2.3390   28.6110 C   0  0  0  0  0  0  0  0  0  0  0  0
    4.2890   -2.5980   29.7660 C   0  0  0  0  0  0  0  0  0  0  0  0
    4.1790   -1.2730   30.1700 N   0  0  0  0  0  0  0  0  0  0  0  0
    3.3660   -0.7700   31.3230 C   0  0  0  0  0  0  0  0  0  0  0  0
    3.4720    0.7630   31.4870 C   0  0  0  0  0  0  0  0  0  0  0  0
    4.2400    1.7730   30.6850 C   0  0  0  0  0  0  0  0  0  0  0  0
    5.0330    1.2140   29.5480 C   0  0  0  0  0  0  0  0  0  0  0  0
    6.0940    2.2790   28.3690 Br  0  0  0  0  0  0  0  0  0  0  0  0
    4.8940   -0.3010   29.4350 C   0  0  0  0  0  0  0  0  0  0  0  0
    5.5450   -1.0190   28.4550 N   0  0  0  0  0  0  0  0  0  0  0  0
    5.5960   -4.7610   23.2320 C   0  0  0  0  0  0  0  0  0  0  0  0
    6.4300   -5.3450   22.2920 C   0  0  0  0  0  0  0  0  0  0  0  0
  1  2  1  0
  2  3  2  0
  2  4  1  0
  4  5  1  0
  5  6  1  0
  6  7  1  0
  7  8  1  0
  8  9  2  0
  8 10  1  0
 10 11  1  0
 10 12  1  0
 12 13  1  1
 12 14  1  0
 14 15  2  0
 15 16  1  0
 16 17  1  0
 17 18  2  0
 18 19  1  0
 19 20  2  0
 20 21  1  0
 16 22  1  0
 20 22  1  0
 14 23  1  0
 22 23  2  0
  7 24  1  0
  4 25  1  0
 24 25  1  0
M  END
