piperidine-amides-14058-covalent
     RDKit          3D

 25 27  0  0  0  0  0  0  0  0999 V2000
    7.0700   -3.3100   19.2940 C   0  0  0  0  0  0  0  0  0  0  0  0
    6.3600   -4.1540   20.2980 C   0  0  0  0  0  0  0  0  0  0  0  0
    5.3380   -4.7670   19.9530 O   0  0  0  0  0  0  0  0  0  0  0  0
    6.8830   -4.2780   21.6050 N   0  0  0  0  0  0  0  0  0  0  0  0
    6.6530   -5.4820   22.3700 C   0  0  0  0  0  0  0  0  0  0  0  0
    6.2770   -5.1270   23.8260 C   0  0  0  0  0  0  0  0  0  0  0  0
    6.1660   -3.6410   23.9850 C   0  0  0  0  0  0  0  0  0  0  0  0
    5.5600   -3.2390   25.2750 C   0  0  0  0  0  0  0  0  0  0  0  0
    4.3270   -3.2140   25.3140 O   0  0  0  0  0  0  0  0  0  0  0  0
    6.3680   -2.9040   26.3630 N   0  0  0  0  0  0  0  0  0  0  0  0
    6.6030   -1.6200   26.9230 C   0  0  1  0  0  0  0  0  0  0  0  0
    5.9010   -0.5090   26.5500 C   0  0  0  0  0  0  0  0  0  0  0  0
    5.8720    0.5170   27.4950 C   0  0  0  0  0  0  0  0  0  0  0  0
    6.4830   -0.0650   28.6900 N   0  0  0  0  0  0  0  0  0  0  0  0
    6.4300    0.4160   29.9590 C   0  0  0  0  0  0  0  0  0  0  0  0
    5.4660    1.3980   30.5060 C   0  0  0  0  0  0  0  0  0  0  0  0
    5.4870    1.8770   31.9690 C   0  0  0  0  0  0  0  0  0  0  0  0
    6.5970    1.2520   32.8310 C   0  0  0  0  0  0  0  0  0  0  0  0
    6.7090    1.6030   34.1340 F   0  0  0  0  0  0  0  0  0  0  0  0
    7.4420    0.3470   32.2170 C   0  0  0  0  0  0  0  0  0  0  0  0
    7.3890   -0.0880   30.8050 C   0  0  0  0  0  0  0  0  0  0  0  0
    6.6590   -1.4470   28.3830 C   0  0  0  0  0  0  0  0  0  0  0  0
    6.8240   -2.5010   29.2780 O   0  0  0  0  0  0  0  0  0  0  0  0
    7.4760   -3.0900   23.6740 C   0  0  0  0  0  0  0  0  0  0  0  0
    7.6960   -3.2260   22.1690 C   0  0  0  0  0  0  0  0  0  0  0  0
  1  2  1  0
  2  3  2  0
  2  4  1  0
  4  5  1  0
  5  6  1  0
  6  7  1  0
  7  8  1  0
  8  9  2  0
  8 10  1  0
 11 10  1  1
 11 12  1  0
 12 13  1  0
 13 14  1  0
 14 15  1  0
 15 16  2  0
 16 17  1  0
 17 18  2  0
 18 19  1  0
 18 20  1  0
 15 21  1  0
 20 21  2  0
 11 22  1  0
 14 22  1  0
 22 23  2  0
  7 24  1  0
  4 25  1  0
 24 25  1  0
M  END
