piperidine-amides-19723-covalent
     RDKit          3D

 22 23  0  0  0  0  0  0  0  0999 V2000
    7.0600   -3.2900   19.3100 C   0  0  0  0  0  0  0  0  0  0  0  0
    6.3680   -4.1210   20.3330 C   0  0  0  0  0  0  0  0  0  0  0  0
    5.3720   -4.7410   19.9550 O   0  0  0  0  0  0  0  0  0  0  0  0
    6.8650   -4.2110   21.6460 N   0  0  0  0  0  0  0  0  0  0  0  0
    7.7290   -3.1820   22.2010 C   0  0  0  0  0  0  0  0  0  0  0  0
    7.3800   -2.9370   23.6430 C   0  0  0  0  0  0  0  0  0  0  0  0
    6.0630   -3.6420   23.9310 C   0  0  0  0  0  0  0  0  0  0  0  0
    5.4990   -3.1970   25.2260 C   0  0  0  0  0  0  0  0  0  0  0  0
    4.3000   -2.9100   25.2610 O   0  0  0  0  0  0  0  0  0  0  0  0
    6.2360   -3.1040   26.4280 N   0  0  0  0  0  0  0  0  0  0  0  0
    5.9310   -4.2130   27.3080 C   0  0  0  0  0  0  0  0  0  0  0  0
    6.6170   -4.0370   28.6420 C   0  0  0  0  0  0  0  0  0  0  0  0
    6.5240   -1.7770   26.7540 C   0  0  0  0  0  0  0  0  0  0  0  0
    6.1790   -1.4430   28.0270 C   0  0  0  0  0  0  0  0  0  0  0  0
    7.1630   -1.1490   28.9000 C   0  0  0  0  0  0  0  0  0  0  0  0
    7.0970   -0.7460   30.3510 C   0  0  0  0  0  0  0  0  0  0  0  0
    5.6510   -0.6930   30.7980 C   0  0  0  0  0  0  0  0  0  0  0  0
    4.4940   -1.0140   29.8600 C   0  0  0  0  0  0  0  0  0  0  0  0
    3.2060   -0.9490   30.3140 F   0  0  0  0  0  0  0  0  0  0  0  0
    4.8820   -1.3850   28.4660 C   0  0  0  0  0  0  0  0  0  0  0  0
    6.1660   -5.1270   23.7720 C   0  0  0  0  0  0  0  0  0  0  0  0
    6.6700   -5.4540   22.3710 C   0  0  0  0  0  0  0  0  0  0  0  0
  1  2  1  0
  2  3  2  0
  2  4  1  0
  4  5  1  0
  5  6  1  0
  6  7  1  0
  7  8  1  0
  8  9  2  0
  8 10  1  0
 10 11  1  0
 11 12  1  0
 10 13  1  0
 13 14  1  0
 14 15  2  0
 15 16  1  0
 16 17  2  0
 17 18  1  0
 18 19  1  0
 14 20  1  0
 18 20  2  0
  7 21  1  0
  4 22  1  0
 21 22  1  0
M  END
