piperidine-amides-2144-covalent
     RDKit          3D

 29 32  0  0  0  0  0  0  0  0999 V2000
    7.0720   -3.3290   19.3310 C   0  0  0  0  0  0  0  0  0  0  0  0
    6.3900   -4.1930   20.3220 C   0  0  0  0  0  0  0  0  0  0  0  0
    5.3630   -4.7710   19.9590 O   0  0  0  0  0  0  0  0  0  0  0  0
    6.9430   -4.3610   21.5890 N   0  0  0  0  0  0  0  0  0  0  0  0
    6.5490   -5.4500   22.4330 C   0  0  0  0  0  0  0  0  0  0  0  0
    5.8210   -4.8880   23.6260 C   0  0  0  0  0  0  0  0  0  0  0  0
    6.6050   -3.7140   24.2330 C   0  0  0  0  0  0  0  0  0  0  0  0
    5.8210   -3.1800   25.3700 C   0  0  0  0  0  0  0  0  0  0  0  0
    4.5960   -3.0250   25.2430 O   0  0  0  0  0  0  0  0  0  0  0  0
    6.4490   -2.8560   26.5830 N   0  0  0  0  0  0  0  0  0  0  0  0
    6.2270   -1.5560   27.1850 C   0  0  0  0  0  0  0  0  0  0  0  0
    6.1130   -0.3350   26.3010 C   0  0  0  0  0  0  0  0  0  0  0  0
    5.9070    0.9900   26.6900 C   0  0  0  0  0  0  0  0  0  0  0  0
    5.7810    1.2810   28.0340 C   0  0  0  0  0  0  0  0  0  0  0  0
    5.8690    0.2140   28.8560 C   0  0  0  0  0  0  0  0  0  0  0  0
    6.0890   -1.1960   28.4670 C   0  0  0  0  0  0  0  0  0  0  0  0
    6.0930   -1.9190   29.7340 C   0  0  0  0  0  0  0  0  0  0  0  0
    7.0840   -1.1960   30.5160 N   0  0  0  0  0  0  0  0  0  0  0  0
    8.1900   -1.1270   29.6390 C   0  0  0  0  0  0  0  0  0  0  0  0
    6.7970    0.1890   30.8270 C   0  0  0  0  0  0  0  0  0  0  0  0
    5.6630    0.8980   30.1890 C   0  0  2  0  0  0  0  0  0  0  0  0
    4.2670    0.6770   30.7330 C   0  0  0  0  0  0  0  0  0  0  0  0
    3.9570   -0.4150   31.7050 C   0  0  0  0  0  0  0  0  0  0  0  0
    2.5860   -0.6700   32.2740 C   0  0  0  0  0  0  0  0  0  0  0  0
    1.5570    0.1380   31.8880 C   0  0  0  0  0  0  0  0  0  0  0  0
    1.7930    1.2560   30.9150 C   0  0  0  0  0  0  0  0  0  0  0  0
    3.2080    1.4860   30.3530 C   0  0  0  0  0  0  0  0  0  0  0  0
    6.8580   -2.6910   23.1490 C   0  0  0  0  0  0  0  0  0  0  0  0
    7.6630   -3.2950   22.2450 C   0  0  0  0  0  0  0  0  0  0  0  0
  1  2  1  0
  2  3  2  0
  2  4  1  0
  4  5  1  0
  5  6  1  0
  6  7  1  0
  7  8  1  0
  8  9  2  0
  8 10  1  0
 10 11  1  0
 11 12  2  0
 12 13  1  0
 13 14  2  0
 14 15  1  0
 11 16  1  0
 15 16  2  0
 16 17  1  0
 17 18  1  0
 18 19  1  0
 18 20  1  0
 15 21  1  0
 20 21  1  0
 21 22  1  1
 22 23  2  0
 23 24  1  0
 24 25  2  0
 25 26  1  0
 22 27  1  0
 26 27  2  0
  7 28  1  0
  4 29  1  0
 28 29  1  0
M  END
