piperidine-amides-17162-covalent
     RDKit          3D

 20 21  0  0  0  0  0  0  0  0999 V2000
    7.1000   -3.3700   19.3620 C   0  0  0  0  0  0  0  0  0  0  0  0
    6.4540   -4.2430   20.3520 C   0  0  0  0  0  0  0  0  0  0  0  0
    5.4000   -4.8230   19.9880 O   0  0  0  0  0  0  0  0  0  0  0  0
    7.0510   -4.4600   21.6260 N   0  0  0  0  0  0  0  0  0  0  0  0
    6.6350   -5.5600   22.4130 C   0  0  0  0  0  0  0  0  0  0  0  0
    6.3740   -5.1600   23.7920 C   0  0  0  0  0  0  0  0  0  0  0  0
    5.9680   -3.7450   23.9290 C   0  0  0  0  0  0  0  0  0  0  0  0
    5.5370   -3.3720   25.3160 C   0  0  0  0  0  0  0  0  0  0  0  0
    4.4060   -2.8720   25.4450 O   0  0  0  0  0  0  0  0  0  0  0  0
    6.2980   -3.5460   26.4880 N   0  0  0  0  0  0  0  0  0  0  0  0
    6.0410   -2.7790   27.6440 C   0  0  0  0  0  0  0  0  0  0  0  0
    5.3920   -3.4160   28.7630 C   0  0  0  0  0  0  0  0  0  0  0  0
    5.5840   -4.6520   28.8040 O   0  0  0  0  0  0  0  0  0  0  0  0
    6.7840   -4.9550   28.2300 C   0  0  1  0  0  0  0  0  0  0  0  0
    7.0620   -6.2050   28.6790 C   0  0  0  0  0  0  0  0  0  0  0  0
    5.6830   -6.6370   28.1530 C   0  0  0  0  0  0  0  0  0  0  0  0
    5.4850   -7.4970   29.3610 C   0  0  0  0  0  0  0  0  0  0  0  0
    6.7620   -4.8820   26.7460 C   0  0  0  0  0  0  0  0  0  0  0  0
    6.9010   -2.7250   23.3170 C   0  0  0  0  0  0  0  0  0  0  0  0
    7.7900   -3.4070   22.2950 C   0  0  0  0  0  0  0  0  0  0  0  0
  1  2  1  0
  2  3  2  0
  2  4  1  0
  4  5  1  0
  5  6  1  0
  6  7  1  0
  7  8  1  0
  8  9  2  0
  8 10  1  0
 10 11  1  0
 11 12  1  0
 12 13  1  0
 13 14  1  0
 14 15  1  6
 15 16  1  0
 16 17  1  0
 10 18  1  0
 14 18  1  0
  7 19  1  0
  4 20  1  0
 19 20  1  0
M  END
