piperidine-amides-12413-covalent
     RDKit          3D

 23 24  0  0  0  0  0  0  0  0999 V2000
    7.1050   -3.2650   19.1970 C   0  0  0  0  0  0  0  0  0  0  0  0
    6.3450   -3.9930   20.2060 C   0  0  0  0  0  0  0  0  0  0  0  0
    5.2920   -4.5470   19.8910 O   0  0  0  0  0  0  0  0  0  0  0  0
    6.8410   -4.1220   21.5490 N   0  0  0  0  0  0  0  0  0  0  0  0
    7.6820   -3.1090   22.1360 C   0  0  0  0  0  0  0  0  0  0  0  0
    7.2930   -2.9500   23.5760 C   0  0  0  0  0  0  0  0  0  0  0  0
    5.8580   -3.4170   23.6480 C   0  0  0  0  0  0  0  0  0  0  0  0
    5.1640   -3.0440   24.9220 C   0  0  0  0  0  0  0  0  0  0  0  0
    3.9350   -3.1730   25.0360 O   0  0  0  0  0  0  0  0  0  0  0  0
    5.8490   -2.5210   26.0450 N   0  0  0  0  0  0  0  0  0  0  0  0
    5.1160   -2.6240   27.2980 C   0  0  0  0  0  0  0  0  0  0  0  0
    5.0930   -4.0860   27.5810 C   0  0  1  0  0  0  0  0  0  0  0  0
    4.0870   -4.5930   26.7390 F   0  0  0  0  0  0  0  0  0  0  0  0
    6.2560   -4.5100   27.1310 C   0  0  0  0  0  0  0  0  0  0  0  0
    6.4720   -5.0760   25.8390 C   0  0  0  0  0  0  0  0  0  0  0  0
    7.7300   -5.4760   25.3840 C   0  0  0  0  0  0  0  0  0  0  0  0
    8.8890   -5.3390   26.2090 C   0  0  0  0  0  0  0  0  0  0  0  0
   10.1560   -5.6030   26.0920 C   0  0  0  0  0  0  0  0  0  0  0  0
    8.5430   -4.8390   27.3010 C   0  0  0  0  0  0  0  0  0  0  0  0
    9.0220   -4.4450   28.4840 C   0  0  0  0  0  0  0  0  0  0  0  0
    7.3550   -4.4120   27.8540 C   0  0  0  0  0  0  0  0  0  0  0  0
    5.6610   -4.8990   23.3140 C   0  0  0  0  0  0  0  0  0  0  0  0
    6.5500   -5.2960   22.3130 C   0  0  0  0  0  0  0  0  0  0  0  0
  1  2  1  0
  2  3  2  0
  2  4  1  0
  4  5  1  0
  5  6  1  0
  6  7  1  0
  7  8  1  0
  8  9  2  0
  8 10  1  0
 10 11  1  0
 11 12  1  0
 12 13  1  6
 12 14  1  0
 14 15  2  0
 15 16  1  0
 16 17  2  0
 17 18  1  0
 17 19  1  0
 19 20  1  0
 14 21  1  0
 19 21  2  0
  7 22  1  0
  4 23  1  0
 22 23  1  0
M  END
