piperidine-amides-33335-covalent
     RDKit          3D

 29 32  0  0  0  0  0  0  0  0999 V2000
    7.0160   -3.3470   19.3170 C   0  0  0  0  0  0  0  0  0  0  0  0
    6.3580   -4.1710   20.3430 C   0  0  0  0  0  0  0  0  0  0  0  0
    5.3620   -4.8380   19.9760 O   0  0  0  0  0  0  0  0  0  0  0  0
    6.8570   -4.2430   21.6680 N   0  0  0  0  0  0  0  0  0  0  0  0
    6.5930   -5.4050   22.4420 C   0  0  0  0  0  0  0  0  0  0  0  0
    6.4580   -5.1900   23.8910 C   0  0  0  0  0  0  0  0  0  0  0  0
    6.7400   -3.8290   24.4270 C   0  0  0  0  0  0  0  0  0  0  0  0
    5.8370   -3.5080   25.6160 C   0  0  0  0  0  0  0  0  0  0  0  0
    4.6900   -3.0980   25.3520 O   0  0  0  0  0  0  0  0  0  0  0  0
    6.1930   -3.6330   27.0170 N   0  0  0  0  0  0  0  0  0  0  0  0
    6.4290   -4.7720   27.8170 C   0  0  0  0  0  0  0  0  0  0  0  0
    5.6060   -5.1680   28.9010 C   0  0  0  0  0  0  0  0  0  0  0  0
    4.4670   -4.1570   29.0700 C   0  0  2  0  0  0  0  0  0  0  0  0
    4.1860   -3.2690   28.0440 C   0  0  0  0  0  0  0  0  0  0  0  0
    5.5920   -2.6960   27.9250 C   0  0  0  0  0  0  0  0  0  0  0  0
    4.8470   -3.2670   30.0820 O   0  0  0  0  0  0  0  0  0  0  0  0
    3.8120   -3.5580   30.9200 C   0  0  2  0  0  0  0  0  0  0  0  0
    2.8350   -2.4150   31.2640 C   0  0  0  0  0  0  0  0  0  0  0  0
    2.3600   -2.3320   32.4150 O   0  0  0  0  0  0  0  0  0  0  0  0
    2.6190   -3.5880   30.1730 C   0  0  0  0  0  0  0  0  0  0  0  0
    3.2300   -4.7460   29.5650 C   0  0  1  0  0  0  0  0  0  0  0  0
    2.2650   -5.8310   29.0580 C   0  0  0  0  0  0  0  0  0  0  0  0
    1.9340   -5.7170   27.7360 O   0  0  0  0  0  0  0  0  0  0  0  0
    1.7580   -6.8410   29.8520 O   0  0  0  0  0  0  0  0  0  0  0  0
    2.2330   -8.1410   29.9670 C   0  0  0  0  0  0  0  0  0  0  0  0
    1.1860   -9.0580   29.9020 C   0  0  0  0  0  0  0  0  0  0  0  0
    3.6090   -4.9760   30.9720 C   0  0  0  0  0  0  0  0  0  0  0  0
    6.6320   -2.7870   23.3690 C   0  0  0  0  0  0  0  0  0  0  0  0
    7.4660   -3.1130   22.3090 C   0  0  0  0  0  0  0  0  0  0  0  0
  1  2  1  0
  2  3  2  0
  2  4  1  0
  4  5  1  0
  5  6  1  0
  6  7  1  0
  7  8  1  0
  8  9  2  0
  8 10  1  0
 10 11  1  0
 11 12  1  0
 13 12  1  6
 13 14  1  0
 10 15  1  0
 14 15  1  0
 13 16  1  0
 16 17  1  0
 17 18  1  1
 18 19  1  0
 17 20  1  0
 13 21  1  0
 20 21  1  0
 21 22  1  6
 22 23  2  0
 22 24  1  0
 24 25  1  0
 25 26  1  0
 17 27  1  0
 21 27  1  0
  7 28  1  0
  4 29  1  0
 28 29  1  0
M  END
