piperidine-amides-4584-covalent
     RDKit          3D

 25 26  0  0  0  0  0  0  0  0999 V2000
    7.0700   -3.3720   19.3240 C   0  0  0  0  0  0  0  0  0  0  0  0
    6.3680   -4.1700   20.3490 C   0  0  0  0  0  0  0  0  0  0  0  0
    5.3530   -4.7880   19.9700 O   0  0  0  0  0  0  0  0  0  0  0  0
    6.8700   -4.2550   21.6610 N   0  0  0  0  0  0  0  0  0  0  0  0
    6.5800   -5.4000   22.4640 C   0  0  0  0  0  0  0  0  0  0  0  0
    6.0140   -5.0370   23.7630 C   0  0  0  0  0  0  0  0  0  0  0  0
    6.0730   -3.5820   24.0020 C   0  0  0  0  0  0  0  0  0  0  0  0
    5.6990   -3.2040   25.3850 C   0  0  0  0  0  0  0  0  0  0  0  0
    4.5370   -3.4460   25.7600 O   0  0  0  0  0  0  0  0  0  0  0  0
    6.6160   -2.5750   26.2470 N   0  0  0  0  0  0  0  0  0  0  0  0
    6.2020   -1.6740   27.3510 C   0  0  0  0  0  0  0  0  0  0  0  0
    5.7410   -0.3760   26.7790 C   0  0  0  0  0  0  0  0  0  0  0  0
    5.5970    0.7600   27.6860 C   0  0  0  0  0  0  0  0  0  0  0  0
    5.4650    0.2280   29.0290 N   0  0  0  0  0  0  0  0  0  0  0  0
    4.4550    0.5000   29.9820 C   0  0  0  0  0  0  0  0  0  0  0  0
    3.5660    1.3030   29.6490 O   0  0  0  0  0  0  0  0  0  0  0  0
    4.5300   -0.1420   31.2060 C   0  0  0  0  0  0  0  0  0  0  0  0
    3.3100   -0.3710   31.7670 C   0  0  0  0  0  0  0  0  0  0  0  0
    3.0310   -1.7070   31.7370 C   0  0  0  0  0  0  0  0  0  0  0  0
    5.1320    0.5680   32.2180 C   0  0  0  0  0  0  0  0  0  0  0  0
    6.5190    0.7380   32.2160 C   0  0  0  0  0  0  0  0  0  0  0  0
    6.7860   -0.3230   29.3500 C   0  0  0  0  0  0  0  0  0  0  0  0
    6.9710   -1.5290   28.4780 C   0  0  0  0  0  0  0  0  0  0  0  0
    7.4510   -3.0530   23.5900 C   0  0  0  0  0  0  0  0  0  0  0  0
    7.7250   -3.2120   22.2130 C   0  0  0  0  0  0  0  0  0  0  0  0
  1  2  1  0
  2  3  2  0
  2  4  1  0
  4  5  1  0
  5  6  1  0
  6  7  1  0
  7  8  1  0
  8  9  2  0
  8 10  1  0
 10 11  1  0
 11 12  1  0
 12 13  1  0
 13 14  1  0
 14 15  1  0
 15 16  2  0
 15 17  1  0
 17 18  1  0
 18 19  1  0
 17 20  1  0
 20 21  1  0
 14 22  1  0
 11 23  1  0
 22 23  1  0
  7 24  1  0
  4 25  1  0
 24 25  1  0
M  END
