piperidine-amides-7183-covalent
     RDKit          3D

 21 23  0  0  0  0  0  0  0  0999 V2000
    7.0670   -3.3530   19.3580 C   0  0  0  0  0  0  0  0  0  0  0  0
    6.3570   -4.1520   20.3580 C   0  0  0  0  0  0  0  0  0  0  0  0
    5.3320   -4.7610   19.9600 O   0  0  0  0  0  0  0  0  0  0  0  0
    6.8430   -4.2520   21.6660 N   0  0  0  0  0  0  0  0  0  0  0  0
    6.6820   -5.4660   22.4350 C   0  0  0  0  0  0  0  0  0  0  0  0
    6.0920   -5.1040   23.7730 C   0  0  0  0  0  0  0  0  0  0  0  0
    6.0720   -3.6130   23.9850 C   0  0  0  0  0  0  0  0  0  0  0  0
    5.6950   -3.2410   25.3670 C   0  0  0  0  0  0  0  0  0  0  0  0
    4.5240   -3.4790   25.7290 O   0  0  0  0  0  0  0  0  0  0  0  0
    6.5730   -2.6230   26.2780 N   0  0  0  0  0  0  0  0  0  0  0  0
    6.1260   -1.5000   27.0750 C   0  0  1  0  0  0  0  0  0  0  0  0
    7.0020   -1.4570   28.3200 C   0  0  0  0  0  0  0  0  0  0  0  0
    6.7900   -0.5260   29.2870 C   0  0  0  0  0  0  0  0  0  0  0  0
    6.1850    0.6150   28.8560 C   0  0  0  0  0  0  0  0  0  0  0  0
    5.9120    1.7720   29.5370 C   0  0  0  0  0  0  0  0  0  0  0  0
    5.2940    2.6710   28.7410 N   0  0  0  0  0  0  0  0  0  0  0  0
    5.1430    2.1210   27.5120 N   0  0  0  0  0  0  0  0  0  0  0  0
    5.6910    0.7700   27.4620 C   0  0  0  0  0  0  0  0  0  0  0  0
    5.8340   -0.2630   26.5340 C   0  0  0  0  0  0  0  0  0  0  0  0
    7.4380   -3.0170   23.6620 C   0  0  0  0  0  0  0  0  0  0  0  0
    7.6980   -3.2000   22.1750 C   0  0  0  0  0  0  0  0  0  0  0  0
  1  2  1  0
  2  3  2  0
  2  4  1  0
  4  5  1  0
  5  6  1  0
  6  7  1  0
  7  8  1  0
  8  9  2  0
  8 10  1  0
 11 10  1  6
 11 12  1  0
 12 13  1  0
 13 14  1  0
 14 15  2  0
 15 16  1  0
 16 17  1  0
 14 18  1  0
 17 18  2  0
 11 19  1  0
 18 19  1  0
  7 20  1  0
  4 21  1  0
 20 21  1  0
M  END
