piperidine-amides-7242-covalent
     RDKit          3D

 21 22  0  0  0  0  0  0  0  0999 V2000
    7.1370   -3.2960   19.2410 C   0  0  0  0  0  0  0  0  0  0  0  0
    6.3520   -4.0250   20.2380 C   0  0  0  0  0  0  0  0  0  0  0  0
    5.2530   -4.4980   19.8630 O   0  0  0  0  0  0  0  0  0  0  0  0
    6.8560   -4.2190   21.5190 N   0  0  0  0  0  0  0  0  0  0  0  0
    7.6810   -3.2280   22.1640 C   0  0  0  0  0  0  0  0  0  0  0  0
    6.9670   -2.7600   23.3920 C   0  0  0  0  0  0  0  0  0  0  0  0
    6.4950   -3.9200   24.2310 C   0  0  0  0  0  0  0  0  0  0  0  0
    5.7170   -3.4460   25.3910 C   0  0  0  0  0  0  0  0  0  0  0  0
    4.4720   -3.5230   25.3390 O   0  0  0  0  0  0  0  0  0  0  0  0
    6.3100   -2.8970   26.5410 N   0  0  0  0  0  0  0  0  0  0  0  0
    6.6530   -1.4990   26.5550 C   0  0  0  0  0  0  0  0  0  0  0  0
    6.1980   -0.7710   27.8100 C   0  0  0  0  0  0  0  0  0  0  0  0
    6.1370    0.5980   27.9060 C   0  0  0  0  0  0  0  0  0  0  0  0
    5.7180    1.2470   29.0480 C   0  0  0  0  0  0  0  0  0  0  0  0
    5.3540    0.5080   30.1100 N   0  0  0  0  0  0  0  0  0  0  0  0
    5.3960   -0.8230   30.0780 C   0  0  0  0  0  0  0  0  0  0  0  0
    5.0220   -1.5500   31.1790 O   0  0  0  0  0  0  0  0  0  0  0  0
    4.3840   -0.9140   32.2700 C   0  0  0  0  0  0  0  0  0  0  0  0
    5.8160   -1.4550   28.9340 C   0  0  0  0  0  0  0  0  0  0  0  0
    5.6170   -4.8810   23.4250 C   0  0  0  0  0  0  0  0  0  0  0  0
    6.4590   -5.3840   22.2600 C   0  0  0  0  0  0  0  0  0  0  0  0
  1  2  1  0
  2  3  2  0
  2  4  1  0
  4  5  1  0
  5  6  1  0
  6  7  1  0
  7  8  1  0
  8  9  2  0
  8 10  1  0
 10 11  1  0
 11 12  1  0
 12 13  2  0
 13 14  1  0
 14 15  2  0
 15 16  1  0
 16 17  1  0
 17 18  1  0
 12 19  1  0
 16 19  2  0
  7 20  1  0
  4 21  1  0
 20 21  1  0
M  END
