piperidine-amides-19550-covalent
     RDKit          3D

 22 24  0  0  0  0  0  0  0  0999 V2000
    7.0090   -3.4420   19.3740 C   0  0  0  0  0  0  0  0  0  0  0  0
    6.3860   -4.2860   20.3700 C   0  0  0  0  0  0  0  0  0  0  0  0
    5.3590   -4.9320   20.0000 O   0  0  0  0  0  0  0  0  0  0  0  0
    6.8870   -4.4740   21.6790 N   0  0  0  0  0  0  0  0  0  0  0  0
    6.3840   -5.6390   22.4440 C   0  0  0  0  0  0  0  0  0  0  0  0
    6.6170   -5.1450   23.9340 C   0  0  0  0  0  0  0  0  0  0  0  0
    6.0940   -3.7280   23.9830 C   0  0  0  0  0  0  0  0  0  0  0  0
    5.5070   -3.1910   25.3750 C   0  0  0  0  0  0  0  0  0  0  0  0
    4.7780   -2.2430   25.1320 O   0  0  0  0  0  0  0  0  0  0  0  0
    5.8810   -3.8450   26.4140 N   0  0  0  0  0  0  0  0  0  0  0  0
    5.7990   -4.6440   27.5120 C   0  0  0  0  0  0  0  0  0  0  0  0
    6.7510   -5.1410   28.3010 C   0  0  0  0  0  0  0  0  0  0  0  0
    7.8170   -4.4720   27.7310 C   0  0  0  0  0  0  0  0  0  0  0  0
    7.1820   -3.3300   26.9990 C   0  0  1  0  0  0  0  0  0  0  0  0
    8.2620   -3.1990   25.9190 C   0  0  0  0  0  0  0  0  0  0  0  0
    8.1920   -1.9270   25.2190 N   0  0  0  0  0  0  0  0  0  0  0  0
    9.2870   -2.2300   24.4460 C   0  0  0  0  0  0  0  0  0  0  0  0
   10.1710   -1.8080   23.4370 C   0  0  0  0  0  0  0  0  0  0  0  0
    9.9510   -3.5170   24.6240 C   0  0  0  0  0  0  0  0  0  0  0  0
    9.3040   -4.1250   25.5360 O   0  0  0  0  0  0  0  0  0  0  0  0
    6.8520   -2.7610   23.1210 C   0  0  0  0  0  0  0  0  0  0  0  0
    7.6920   -3.4870   22.3370 C   0  0  0  0  0  0  0  0  0  0  0  0
  1  2  1  0
  2  3  2  0
  2  4  1  0
  4  5  1  0
  5  6  1  0
  6  7  1  0
  7  8  1  0
  8  9  2  0
  8 10  1  0
 10 11  1  0
 11 12  1  0
 12 13  1  0
 10 14  1  0
 13 14  1  0
 14 15  1  6
 15 16  2  0
 16 17  1  0
 17 18  1  0
 17 19  2  0
 15 20  1  0
 19 20  1  0
  7 21  1  0
  4 22  1  0
 21 22  1  0
M  END
