piperidine-amides-32895-covalent
     RDKit          3D

 28 30  0  0  0  0  0  0  0  0999 V2000
    7.0930   -3.3270   19.3050 C   0  0  0  0  0  0  0  0  0  0  0  0
    6.3850   -4.1760   20.3020 C   0  0  0  0  0  0  0  0  0  0  0  0
    5.3550   -4.7780   19.9650 O   0  0  0  0  0  0  0  0  0  0  0  0
    6.9400   -4.3120   21.5900 N   0  0  0  0  0  0  0  0  0  0  0  0
    7.7950   -3.3240   22.2030 C   0  0  0  0  0  0  0  0  0  0  0  0
    6.9950   -2.6520   23.3160 C   0  0  0  0  0  0  0  0  0  0  0  0
    6.6050   -3.7170   24.2940 C   0  0  0  0  0  0  0  0  0  0  0  0
    5.7250   -3.1790   25.3540 C   0  0  0  0  0  0  0  0  0  0  0  0
    4.5880   -2.8470   24.9880 O   0  0  0  0  0  0  0  0  0  0  0  0
    6.1580   -3.0740   26.6880 N   0  0  0  0  0  0  0  0  0  0  0  0
    6.3300   -1.8330   27.3800 C   0  0  0  0  0  0  0  0  0  0  0  0
    6.9110   -1.5330   28.5860 C   0  0  0  0  0  0  0  0  0  0  0  0
    6.9500   -0.2270   29.0800 C   0  0  0  0  0  0  0  0  0  0  0  0
    6.3910    0.7920   28.3370 C   0  0  0  0  0  0  0  0  0  0  0  0
    5.8030    0.5700   27.1340 N   0  0  0  0  0  0  0  0  0  0  0  0
    5.7590   -0.6800   26.6470 C   0  0  0  0  0  0  0  0  0  0  0  0
    5.6010   -3.9890   27.6920 C   0  0  0  0  0  0  0  0  0  0  0  0
    3.9400   -4.3720   28.0360 S   0  0  0  0  0  0  0  0  0  0  0  0
    4.4020   -5.4910   29.3090 C   0  0  0  0  0  0  0  0  0  0  0  0
    5.7580   -5.5160   29.4080 N   0  0  0  0  0  0  0  0  0  0  0  0
    6.4860   -4.7110   28.5470 C   0  0  0  0  0  0  0  0  0  0  0  0
    7.9350   -4.4710   28.3600 C   0  0  0  0  0  0  0  0  0  0  0  0
    8.2580   -3.2800   28.4290 O   0  0  0  0  0  0  0  0  0  0  0  0
    8.8840   -5.4590   28.1280 O   0  0  0  0  0  0  0  0  0  0  0  0
    8.9690   -6.0310   26.8320 C   0  0  0  0  0  0  0  0  0  0  0  0
    9.1220   -5.2050   25.7650 C   0  0  0  0  0  0  0  0  0  0  0  0
    5.8940   -4.9100   23.7080 C   0  0  0  0  0  0  0  0  0  0  0  0
    6.5460   -5.4130   22.4400 C   0  0  0  0  0  0  0  0  0  0  0  0
  1  2  1  0
  2  3  2  0
  2  4  1  0
  4  5  1  0
  5  6  1  0
  6  7  1  0
  7  8  1  0
  8  9  2  0
  8 10  1  0
 10 11  1  0
 11 12  2  0
 12 13  1  0
 13 14  2  0
 14 15  1  0
 11 16  1  0
 15 16  2  0
 10 17  1  0
 17 18  1  0
 18 19  1  0
 19 20  2  0
 17 21  2  0
 20 21  1  0
 21 22  1  0
 22 23  2  0
 22 24  1  0
 24 25  1  0
 25 26  1  0
  7 27  1  0
  4 28  1  0
 27 28  1  0
M  END
