piperidine-amides-3706-covalent
     RDKit          3D

 24 26  0  0  0  0  0  0  0  0999 V2000
    7.1690   -3.3040   19.2260 C   0  0  0  0  0  0  0  0  0  0  0  0
    6.3780   -4.0490   20.2120 C   0  0  0  0  0  0  0  0  0  0  0  0
    5.2520   -4.4610   19.8530 O   0  0  0  0  0  0  0  0  0  0  0  0
    6.9150   -4.3510   21.4830 N   0  0  0  0  0  0  0  0  0  0  0  0
    6.3240   -5.3990   22.2290 C   0  0  0  0  0  0  0  0  0  0  0  0
    5.7990   -4.9770   23.5220 C   0  0  0  0  0  0  0  0  0  0  0  0
    6.5360   -3.8690   24.1730 C   0  0  0  0  0  0  0  0  0  0  0  0
    5.8320   -3.3750   25.3960 C   0  0  0  0  0  0  0  0  0  0  0  0
    4.5870   -3.3640   25.4250 O   0  0  0  0  0  0  0  0  0  0  0  0
    6.5590   -2.9160   26.5050 N   0  0  0  0  0  0  0  0  0  0  0  0
    6.1530   -2.8490   27.8540 C   0  0  0  0  0  0  0  0  0  0  0  0
    5.5610   -1.6190   28.3840 C   0  0  2  0  0  0  0  0  0  0  0  0
    5.8930   -1.3210   29.8090 C   0  0  0  0  0  0  0  0  0  0  0  0
    5.7740   -0.1160   29.2830 C   0  0  2  0  0  0  0  0  0  0  0  0
    6.5870    0.4770   30.4360 C   0  0  0  0  0  0  0  0  0  0  0  0
    7.8780    0.9030   30.1550 O   0  0  0  0  0  0  0  0  0  0  0  0
    6.0960    0.5840   31.7150 O   0  0  0  0  0  0  0  0  0  0  0  0
    7.0760    0.3170   32.5260 C   0  0  0  0  0  0  0  0  0  0  0  0
    7.9830    1.5300   32.7450 C   0  0  0  0  0  0  0  0  0  0  0  0
    4.4210    0.0730   29.1180 C   0  0  0  0  0  0  0  0  0  0  0  0
    4.2550   -1.1740   28.3970 O   0  0  0  0  0  0  0  0  0  0  0  0
    6.2750   -0.2900   28.0040 C   0  0  0  0  0  0  0  0  0  0  0  0
    6.7840   -2.7040   23.2200 C   0  0  0  0  0  0  0  0  0  0  0  0
    7.6390   -3.2490   22.1440 C   0  0  0  0  0  0  0  0  0  0  0  0
  1  2  1  0
  2  3  2  0
  2  4  1  0
  4  5  1  0
  5  6  1  0
  6  7  1  0
  7  8  1  0
  8  9  2  0
  8 10  1  0
 10 11  1  0
 12 11  1  6
 12 13  1  0
 13 14  1  0
 14 15  1  1
 15 16  2  0
 15 17  1  0
 17 18  1  0
 18 19  1  0
 14 20  1  0
 12 21  1  0
 20 21  1  0
 12 22  1  0
 14 22  1  0
  7 23  1  0
  4 24  1  0
 23 24  1  0
M  END
