piperidine-amides-12494-covalent
     RDKit          3D

 23 23  0  0  0  0  0  0  0  0999 V2000
    7.1030   -3.2890   19.2120 C   0  0  0  0  0  0  0  0  0  0  0  0
    6.3460   -4.0380   20.2080 C   0  0  0  0  0  0  0  0  0  0  0  0
    5.2800   -4.5640   19.8940 O   0  0  0  0  0  0  0  0  0  0  0  0
    6.8710   -4.2200   21.5310 N   0  0  0  0  0  0  0  0  0  0  0  0
    7.6310   -3.1650   22.1430 C   0  0  0  0  0  0  0  0  0  0  0  0
    6.9420   -2.7060   23.3930 C   0  0  0  0  0  0  0  0  0  0  0  0
    6.4730   -3.9320   24.1680 C   0  0  0  0  0  0  0  0  0  0  0  0
    5.7930   -3.5000   25.4240 C   0  0  0  0  0  0  0  0  0  0  0  0
    4.5980   -3.1430   25.4340 O   0  0  0  0  0  0  0  0  0  0  0  0
    6.5390   -3.4740   26.6330 N   0  0  0  0  0  0  0  0  0  0  0  0
    6.0560   -4.1290   27.8370 C   0  0  1  0  0  0  0  0  0  0  0  0
    4.6060   -4.4370   27.7240 C   0  0  0  0  0  0  0  0  0  0  0  0
    3.8990   -4.7360   28.8770 C   0  0  0  0  0  0  0  0  0  0  0  0
    2.6610   -5.3940   28.8350 C   0  0  0  0  0  0  0  0  0  0  0  0
    1.6040   -4.8860   28.0630 O   0  0  0  0  0  0  0  0  0  0  0  0
    2.5090   -6.5230   29.5630 O   0  0  0  0  0  0  0  0  0  0  0  0
    3.1420   -7.7490   29.2530 C   0  0  0  0  0  0  0  0  0  0  0  0
    6.6350   -5.5180   27.9810 C   0  0  0  0  0  0  0  0  0  0  0  0
    6.7980   -6.2990   26.9550 O   0  0  0  0  0  0  0  0  0  0  0  0
    6.9620   -6.0940   29.1730 O   0  0  0  0  0  0  0  0  0  0  0  0
    6.1200   -7.1430   29.6990 C   0  0  0  0  0  0  0  0  0  0  0  0
    5.5020   -4.7170   23.2960 C   0  0  0  0  0  0  0  0  0  0  0  0
    6.2900   -5.2960   22.3020 C   0  0  0  0  0  0  0  0  0  0  0  0
  1  2  1  0
  2  3  2  0
  2  4  1  0
  4  5  1  0
  5  6  1  0
  6  7  1  0
  7  8  1  0
  8  9  2  0
  8 10  1  0
 10 11  1  0
 11 12  1  6
 12 13  1  0
 13 14  1  0
 14 15  2  0
 14 16  1  0
 16 17  1  0
 11 18  1  0
 18 19  2  0
 18 20  1  0
 20 21  1  0
  7 22  1  0
  4 23  1  0
 22 23  1  0
M  END
