piperidine-amides-12368-covalent
     RDKit          3D

 24 25  0  0  0  0  0  0  0  0999 V2000
    7.1580   -3.2100   19.2240 C   0  0  0  0  0  0  0  0  0  0  0  0
    6.3890   -3.9280   20.2330 C   0  0  0  0  0  0  0  0  0  0  0  0
    5.3660   -4.5300   19.8930 O   0  0  0  0  0  0  0  0  0  0  0  0
    6.8050   -3.9940   21.6160 N   0  0  0  0  0  0  0  0  0  0  0  0
    5.9740   -4.7890   22.4390 C   0  0  0  0  0  0  0  0  0  0  0  0
    4.9770   -3.8790   23.0990 C   0  0  0  0  0  0  0  0  0  0  0  0
    5.7250   -2.7590   23.8320 C   0  0  0  0  0  0  0  0  0  0  0  0
    5.1290   -2.5670   25.2350 C   0  0  0  0  0  0  0  0  0  0  0  0
    3.8910   -2.6120   25.3600 O   0  0  0  0  0  0  0  0  0  0  0  0
    5.8480   -2.3380   26.4660 N   0  0  0  0  0  0  0  0  0  0  0  0
    6.1370   -3.5060   27.2780 C   0  0  0  0  0  0  0  0  0  0  0  0
    4.9580   -4.1760   27.9040 C   0  0  0  0  0  0  0  0  0  0  0  0
    7.1530   -3.2080   28.3170 C   0  0  0  0  0  0  0  0  0  0  0  0
    6.6370   -4.3550   26.3160 C   0  0  0  0  0  0  0  0  0  0  0  0
    7.8860   -4.7010   26.4550 C   0  0  0  0  0  0  0  0  0  0  0  0
    8.4100   -5.5130   25.4830 C   0  0  0  0  0  0  0  0  0  0  0  0
   10.0040   -5.8350   25.9530 Cl  0  0  0  0  0  0  0  0  0  0  0  0
    7.7490   -5.9670   24.3750 C   0  0  0  0  0  0  0  0  0  0  0  0
    6.4520   -5.6140   24.2800 C   0  0  0  0  0  0  0  0  0  0  0  0
    5.9130   -4.8260   25.2510 C   0  0  0  0  0  0  0  0  0  0  0  0
    4.6010   -4.4720   25.2000 O   0  0  0  0  0  0  0  0  0  0  0  0
    3.7590   -5.5250   25.5330 C   0  0  0  0  0  0  0  0  0  0  0  0
    7.2390   -2.9030   23.6500 C   0  0  0  0  0  0  0  0  0  0  0  0
    7.5410   -2.9160   22.2590 C   0  0  0  0  0  0  0  0  0  0  0  0
  1  2  1  0
  2  3  2  0
  2  4  1  0
  4  5  1  0
  5  6  1  0
  6  7  1  0
  7  8  1  0
  8  9  2  0
  8 10  1  0
 11 10  1  0
 11 12  1  0
 11 13  1  0
 11 14  1  0
 14 15  2  0
 15 16  1  0
 16 17  1  0
 16 18  2  0
 18 19  1  0
 14 20  1  0
 19 20  2  0
 20 21  1  0
 21 22  1  0
  7 23  1  0
  4 24  1  0
 23 24  1  0
M  END
