piperidine-amides-13809-covalent
     RDKit          3D

 27 29  0  0  0  0  0  0  0  0999 V2000
    7.1650   -3.2950   19.2400 C   0  0  0  0  0  0  0  0  0  0  0  0
    6.3670   -4.0470   20.2390 C   0  0  0  0  0  0  0  0  0  0  0  0
    5.2870   -4.5560   19.8950 O   0  0  0  0  0  0  0  0  0  0  0  0
    6.9010   -4.2070   21.5300 N   0  0  0  0  0  0  0  0  0  0  0  0
    7.7100   -3.1920   22.1540 C   0  0  0  0  0  0  0  0  0  0  0  0
    6.8570   -2.6060   23.2730 C   0  0  0  0  0  0  0  0  0  0  0  0
    6.5890   -3.7100   24.2420 C   0  0  0  0  0  0  0  0  0  0  0  0
    5.8110   -3.2490   25.4110 C   0  0  0  0  0  0  0  0  0  0  0  0
    4.6210   -2.9910   25.1980 O   0  0  0  0  0  0  0  0  0  0  0  0
    6.4090   -3.1230   26.6720 N   0  0  0  0  0  0  0  0  0  0  0  0
    5.9170   -3.6490   27.8960 C   0  0  1  0  0  0  0  0  0  0  0  0
    6.3190   -4.8720   28.3890 C   0  0  0  0  0  0  0  0  0  0  0  0
    5.1960   -5.4260   29.1300 N   0  0  0  0  0  0  0  0  0  0  0  0
    3.9150   -5.6480   28.5470 C   0  0  0  0  0  0  0  0  0  0  0  0
    3.5900   -6.9650   28.7280 C   0  0  0  0  0  0  0  0  0  0  0  0
    4.5480   -7.6020   29.6050 C   0  0  0  0  0  0  0  0  0  0  0  0
    5.5260   -6.5270   30.0370 C   0  0  0  0  0  0  0  0  0  0  0  0
    5.7200   -2.6890   28.9060 C   0  0  0  0  0  0  0  0  0  0  0  0
    6.7500   -1.7610   29.0620 C   0  0  0  0  0  0  0  0  0  0  0  0
    6.8790   -0.6080   30.0300 C   0  0  0  0  0  0  0  0  0  0  0  0
    5.6320   -0.5540   30.9160 C   0  0  0  0  0  0  0  0  0  0  0  0
    5.6450    0.4770   31.8480 O   0  0  0  0  0  0  0  0  0  0  0  0
    4.5850    1.4120   31.8620 C   0  0  0  0  0  0  0  0  0  0  0  0
    4.5660   -1.5290   30.7410 C   0  0  0  0  0  0  0  0  0  0  0  0
    4.6410   -2.5970   29.7160 C   0  0  0  0  0  0  0  0  0  0  0  0
    5.8240   -4.8620   23.6080 C   0  0  0  0  0  0  0  0  0  0  0  0
    6.4590   -5.3280   22.3500 C   0  0  0  0  0  0  0  0  0  0  0  0
  1  2  1  0
  2  3  2  0
  2  4  1  0
  4  5  1  0
  5  6  1  0
  6  7  1  0
  7  8  1  0
  8  9  2  0
  8 10  1  0
 10 11  1  0
 11 12  1  1
 12 13  1  0
 13 14  1  0
 14 15  1  0
 15 16  1  0
 13 17  1  0
 16 17  1  0
 11 18  1  0
 18 19  2  0
 19 20  1  0
 20 21  2  0
 21 22  1  0
 22 23  1  0
 21 24  1  0
 18 25  1  0
 24 25  2  0
  7 26  1  0
  4 27  1  0
 26 27  1  0
M  END
