piperidine-amides-25263-covalent
     RDKit          3D

 23 24  0  0  0  0  0  0  0  0999 V2000
    7.0520   -3.3340   19.3120 C   0  0  0  0  0  0  0  0  0  0  0  0
    6.3740   -4.1930   20.3120 C   0  0  0  0  0  0  0  0  0  0  0  0
    5.3510   -4.7710   19.9580 O   0  0  0  0  0  0  0  0  0  0  0  0
    6.9330   -4.3540   21.5820 N   0  0  0  0  0  0  0  0  0  0  0  0
    6.6710   -5.5260   22.3840 C   0  0  0  0  0  0  0  0  0  0  0  0
    5.9740   -5.1300   23.6590 C   0  0  0  0  0  0  0  0  0  0  0  0
    6.6910   -3.9370   24.3030 C   0  0  0  0  0  0  0  0  0  0  0  0
    5.8920   -3.5240   25.4710 C   0  0  0  0  0  0  0  0  0  0  0  0
    4.9030   -2.7990   25.3010 O   0  0  0  0  0  0  0  0  0  0  0  0
    6.2400   -3.9730   26.7580 N   0  0  0  0  0  0  0  0  0  0  0  0
    6.9590   -5.1670   26.8540 C   0  0  0  0  0  0  0  0  0  0  0  0
    7.1880   -5.4170   28.5310 S   0  0  0  0  0  0  0  0  0  0  0  0
    5.8900   -4.3120   28.7890 C   0  0  0  0  0  0  0  0  0  0  0  0
    5.9350   -3.2040   27.8900 C   0  0  2  0  0  0  0  0  0  0  0  0
    4.7560   -2.5420   27.7810 C   0  0  0  0  0  0  0  0  0  0  0  0
    4.6100   -1.4280   26.9730 O   0  0  0  0  0  0  0  0  0  0  0  0
    3.5340   -2.8690   28.4900 N   0  0  0  0  0  0  0  0  0  0  0  0
    2.2790   -2.8590   27.7740 C   0  0  0  0  0  0  0  0  0  0  0  0
    1.4540   -4.0700   28.1810 C   0  0  0  0  0  0  0  0  0  0  0  0
    1.0780   -3.3690   29.4550 C   0  0  0  0  0  0  0  0  0  0  0  0
   -0.0010   -3.9490   28.5830 C   0  0  0  0  0  0  0  0  0  0  0  0
    6.9360   -2.8210   23.3770 C   0  0  0  0  0  0  0  0  0  0  0  0
    7.6650   -3.2600   22.1670 C   0  0  0  0  0  0  0  0  0  0  0  0
  1  2  1  0
  2  3  2  0
  2  4  1  0
  4  5  1  0
  5  6  1  0
  6  7  1  0
  7  8  1  0
  8  9  2  0
  8 10  1  0
 10 11  1  0
 11 12  1  0
 12 13  1  0
 10 14  1  0
 13 14  1  0
 14 15  1  6
 15 16  2  0
 15 17  1  0
 17 18  1  0
 18 19  1  0
 19 20  1  0
 19 21  1  0
  7 22  1  0
  4 23  1  0
 22 23  1  0
M  END
