piperidine-amides-13698-covalent
     RDKit          3D

 27 28  0  0  0  0  0  0  0  0999 V2000
    7.1270   -3.2420   19.2010 C   0  0  0  0  0  0  0  0  0  0  0  0
    6.3570   -4.0090   20.2190 C   0  0  0  0  0  0  0  0  0  0  0  0
    5.2900   -4.5500   19.8880 O   0  0  0  0  0  0  0  0  0  0  0  0
    6.8790   -4.1420   21.5240 N   0  0  0  0  0  0  0  0  0  0  0  0
    7.7240   -3.1110   22.1030 C   0  0  0  0  0  0  0  0  0  0  0  0
    7.4160   -2.9980   23.6000 C   0  0  0  0  0  0  0  0  0  0  0  0
    6.0640   -3.5840   23.8150 C   0  0  0  0  0  0  0  0  0  0  0  0
    5.4340   -3.1810   25.0940 C   0  0  0  0  0  0  0  0  0  0  0  0
    4.2180   -2.9750   25.0680 O   0  0  0  0  0  0  0  0  0  0  0  0
    6.1920   -3.0360   26.2560 N   0  0  0  0  0  0  0  0  0  0  0  0
    6.4970   -4.0270   27.2150 C   0  0  1  0  0  0  0  0  0  0  0  0
    6.0790   -5.3370   27.0500 C   0  0  0  0  0  0  0  0  0  0  0  0
    4.6640   -5.2740   26.6890 O   0  0  0  0  0  0  0  0  0  0  0  0
    3.9900   -6.4770   26.8660 C   0  0  0  0  0  0  0  0  0  0  0  0
    3.2990   -7.0070   25.8000 C   0  0  0  0  0  0  0  0  0  0  0  0
    2.5320   -8.2660   25.9290 C   0  0  0  0  0  0  0  0  0  0  0  0
    1.7450   -8.9080   24.7890 C   0  0  0  0  0  0  0  0  0  0  0  0
    1.8150   -8.1280   23.4750 C   0  0  0  0  0  0  0  0  0  0  0  0
    2.5430   -6.9550   23.4080 C   0  0  0  0  0  0  0  0  0  0  0  0
    3.2910   -6.3870   24.5680 C   0  0  0  0  0  0  0  0  0  0  0  0
    7.8740   -4.1600   27.6410 C   0  0  0  0  0  0  0  0  0  0  0  0
    8.2720   -5.3130   28.2070 C   0  0  0  0  0  0  0  0  0  0  0  0
    7.5270   -5.8160   29.1000 O   0  0  0  0  0  0  0  0  0  0  0  0
    9.3630   -5.8520   27.8290 O   0  0  0  0  0  0  0  0  0  0  0  0
    9.4670   -6.1420   26.4530 C   0  0  0  0  0  0  0  0  0  0  0  0
    6.0250   -5.0630   23.6020 C   0  0  0  0  0  0  0  0  0  0  0  0
    6.6820   -5.3720   22.2630 C   0  0  0  0  0  0  0  0  0  0  0  0
  1  2  1  0
  2  3  2  0
  2  4  1  0
  4  5  1  0
  5  6  1  0
  6  7  1  0
  7  8  1  0
  8  9  2  0
  8 10  1  0
 10 11  1  0
 11 12  1  6
 12 13  1  0
 13 14  1  0
 14 15  1  0
 15 16  2  0
 16 17  1  0
 17 18  2  0
 18 19  1  0
 15 20  1  0
 19 20  2  0
 11 21  1  0
 21 22  1  0
 22 23  2  0
 22 24  1  0
 24 25  1  0
  7 26  1  0
  4 27  1  0
 26 27  1  0
M  END
