piperidine-amides-32662-covalent
     RDKit          3D

 28 29  0  0  0  0  0  0  0  0999 V2000
    7.1320   -3.2690   19.2390 C   0  0  0  0  0  0  0  0  0  0  0  0
    6.3640   -4.0610   20.2390 C   0  0  0  0  0  0  0  0  0  0  0  0
    5.2930   -4.5890   19.9000 O   0  0  0  0  0  0  0  0  0  0  0  0
    6.9050   -4.2330   21.5310 N   0  0  0  0  0  0  0  0  0  0  0  0
    7.6950   -3.2030   22.1540 C   0  0  0  0  0  0  0  0  0  0  0  0
    6.8400   -2.6580   23.2960 C   0  0  0  0  0  0  0  0  0  0  0  0
    6.5600   -3.7850   24.2360 C   0  0  0  0  0  0  0  0  0  0  0  0
    5.7820   -3.3090   25.4010 C   0  0  0  0  0  0  0  0  0  0  0  0
    4.5780   -3.1090   25.2000 O   0  0  0  0  0  0  0  0  0  0  0  0
    6.3780   -3.1010   26.6440 N   0  0  0  0  0  0  0  0  0  0  0  0
    6.4680   -4.1260   27.6300 C   0  0  0  0  0  0  0  0  0  0  0  0
    6.7730   -5.4390   27.3390 C   0  0  0  0  0  0  0  0  0  0  0  0
    5.7780   -6.2600   28.0080 N   0  0  0  0  0  0  0  0  0  0  0  0
    6.0300   -6.7090   29.2930 C   0  0  0  0  0  0  0  0  0  0  0  0
    4.7070   -6.6520   27.2770 C   0  0  0  0  0  0  0  0  0  0  0  0
    6.5660   -1.7380   27.0840 C   0  0  0  0  0  0  0  0  0  0  0  0
    5.3990   -1.1390   27.8830 C   0  0  0  0  0  0  0  0  0  0  0  0
    4.9660   -2.0390   29.0390 C   0  0  0  0  0  0  0  0  0  0  0  0
    3.9280   -1.6930   29.8960 C   0  0  0  0  0  0  0  0  0  0  0  0
    3.0770   -0.4590   29.8730 C   0  0  0  0  0  0  0  0  0  0  0  0
    3.5780    0.3690   28.7020 C   0  0  0  0  0  0  0  0  0  0  0  0
    3.3530    1.5560   28.0440 C   0  0  0  0  0  0  0  0  0  0  0  0
    2.3940    2.3720   28.5300 F   0  0  0  0  0  0  0  0  0  0  0  0
    4.4070    2.3810   27.9960 F   0  0  0  0  0  0  0  0  0  0  0  0
    2.9390    1.2970   26.7470 F   0  0  0  0  0  0  0  0  0  0  0  0
    4.6480    0.1250   27.7290 C   0  0  0  0  0  0  0  0  0  0  0  0
    5.8700   -4.9590   23.6010 C   0  0  0  0  0  0  0  0  0  0  0  0
    6.5930   -5.3950   22.3230 C   0  0  0  0  0  0  0  0  0  0  0  0
  1  2  1  0
  2  3  2  0
  2  4  1  0
  4  5  1  0
  5  6  1  0
  6  7  1  0
  7  8  1  0
  8  9  2  0
  8 10  1  0
 10 11  1  0
 11 12  1  0
 12 13  1  0
 13 14  1  0
 13 15  1  0
 10 16  1  0
 16 17  1  0
 17 18  2  0
 18 19  1  0
 19 20  2  0
 20 21  1  0
 21 22  1  0
 22 23  1  0
 22 24  1  0
 22 25  1  0
 17 26  1  0
 21 26  2  0
  7 27  1  0
  4 28  1  0
 27 28  1  0
M  END
