piperidine-amides-34214-covalent
     RDKit          3D

 30 32  0  0  0  0  0  0  0  0999 V2000
    7.1020   -3.3350   19.3400 C   0  0  0  0  0  0  0  0  0  0  0  0
    6.3890   -4.1670   20.3140 C   0  0  0  0  0  0  0  0  0  0  0  0
    5.3630   -4.7970   19.9720 O   0  0  0  0  0  0  0  0  0  0  0  0
    6.8840   -4.3050   21.6160 N   0  0  0  0  0  0  0  0  0  0  0  0
    6.5630   -5.5090   22.3540 C   0  0  0  0  0  0  0  0  0  0  0  0
    6.0030   -5.0890   23.7260 C   0  0  0  0  0  0  0  0  0  0  0  0
    5.9370   -3.5750   23.7390 C   0  0  0  0  0  0  0  0  0  0  0  0
    5.3710   -3.0810   25.0090 C   0  0  0  0  0  0  0  0  0  0  0  0
    4.1630   -2.7710   25.0070 O   0  0  0  0  0  0  0  0  0  0  0  0
    6.1270   -2.9710   26.1950 N   0  0  0  0  0  0  0  0  0  0  0  0
    6.4010   -4.2170   26.8180 C   0  0  0  0  0  0  0  0  0  0  0  0
    7.8660   -4.3030   27.0380 C   0  0  0  0  0  0  0  0  0  0  0  0
    8.3210   -5.1270   27.9760 C   0  0  0  0  0  0  0  0  0  0  0  0
    9.6280   -4.9040   28.1220 C   0  0  0  0  0  0  0  0  0  0  0  0
   10.2980   -4.5330   26.9790 O   0  0  0  0  0  0  0  0  0  0  0  0
    9.8030   -5.0000   25.7670 C   0  0  0  0  0  0  0  0  0  0  0  0
    8.4580   -4.7380   25.7580 C   0  0  0  0  0  0  0  0  0  0  0  0
    5.6100   -1.9230   27.0910 C   0  0  0  0  0  0  0  0  0  0  0  0
    6.5060   -1.6730   28.2660 C   0  0  0  0  0  0  0  0  0  0  0  0
    6.2880   -0.2770   28.2100 N   0  0  0  0  0  0  0  0  0  0  0  0
    5.7100    0.1770   29.4830 C   0  0  0  0  0  0  0  0  0  0  0  0
    6.5510    0.1410   30.5910 O   0  0  0  0  0  0  0  0  0  0  0  0
    4.5470    0.5700   29.5550 O   0  0  0  0  0  0  0  0  0  0  0  0
    3.7300   -0.2530   30.2950 C   0  0  0  0  0  0  0  0  0  0  0  0
    4.2710   -1.5210   30.5390 C   0  0  0  0  0  0  0  0  0  0  0  0
    3.8810   -0.6710   31.7170 C   0  0  0  0  0  0  0  0  0  0  0  0
    2.3100   -0.5250   29.7440 C   0  0  0  0  0  0  0  0  0  0  0  0
    5.6680   -0.4160   26.9050 C   0  0  0  0  0  0  0  0  0  0  0  0
    7.2020   -2.8550   23.4200 C   0  0  0  0  0  0  0  0  0  0  0  0
    7.6600   -3.2180   22.1840 C   0  0  0  0  0  0  0  0  0  0  0  0
  1  2  1  0
  2  3  2  0
  2  4  1  0
  4  5  1  0
  5  6  1  0
  6  7  1  0
  7  8  1  0
  8  9  2  0
  8 10  1  0
 10 11  1  0
 11 12  1  0
 12 13  1  0
 13 14  1  0
 14 15  1  0
 15 16  1  0
 12 17  1  0
 16 17  1  0
 10 18  1  0
 18 19  1  0
 19 20  1  0
 20 21  1  0
 21 22  2  0
 21 23  1  0
 24 23  1  0
 24 25  1  0
 24 26  1  0
 24 27  1  0
 18 28  1  0
 20 28  1  0
  7 29  1  0
  4 30  1  0
 29 30  1  0
M  END
