piperidine-amides-13397-covalent
     RDKit          3D

 22 23  0  0  0  0  0  0  0  0999 V2000
    7.0630   -3.2710   19.2610 C   0  0  0  0  0  0  0  0  0  0  0  0
    6.3090   -4.0630   20.2760 C   0  0  0  0  0  0  0  0  0  0  0  0
    5.2770   -4.6510   19.9170 O   0  0  0  0  0  0  0  0  0  0  0  0
    6.7920   -4.1700   21.6040 N   0  0  0  0  0  0  0  0  0  0  0  0
    6.6300   -5.4130   22.3390 C   0  0  0  0  0  0  0  0  0  0  0  0
    6.2270   -5.1210   23.8010 C   0  0  0  0  0  0  0  0  0  0  0  0
    6.0770   -3.6500   24.0000 C   0  0  0  0  0  0  0  0  0  0  0  0
    5.5210   -3.2510   25.3180 C   0  0  0  0  0  0  0  0  0  0  0  0
    4.3490   -2.8700   25.3060 O   0  0  0  0  0  0  0  0  0  0  0  0
    6.2780   -3.3100   26.4960 N   0  0  0  0  0  0  0  0  0  0  0  0
    6.0610   -4.1580   27.6300 C   0  0  0  0  0  0  0  0  0  0  0  0
    4.8800   -4.2490   28.3320 C   0  0  0  0  0  0  0  0  0  0  0  0
    3.7500   -3.3950   28.2500 C   0  0  0  0  0  0  0  0  0  0  0  0
    2.6630   -3.6730   29.0500 C   0  0  0  0  0  0  0  0  0  0  0  0
    3.0330   -5.1070   30.0010 S   0  0  0  0  0  0  0  0  0  0  0  0
    4.6680   -5.3440   29.3190 C   0  0  0  0  0  0  0  0  0  0  0  0
    5.7610   -6.5910   29.7350 S   0  0  0  0  0  0  0  0  0  0  0  0
    5.2640   -8.0670   29.0320 N   0  0  0  0  0  0  0  0  0  0  0  0
    7.0840   -6.1880   29.1500 O   0  0  0  0  0  0  0  0  0  0  0  0
    5.8610   -6.6550   31.2120 O   0  0  0  0  0  0  0  0  0  0  0  0
    7.3730   -2.9770   23.6620 C   0  0  0  0  0  0  0  0  0  0  0  0
    7.6410   -3.1690   22.1800 C   0  0  0  0  0  0  0  0  0  0  0  0
  1  2  1  0
  2  3  2  0
  2  4  1  0
  4  5  1  0
  5  6  1  0
  6  7  1  0
  7  8  1  0
  8  9  2  0
  8 10  1  0
 10 11  1  0
 11 12  1  0
 12 13  1  0
 13 14  2  0
 14 15  1  0
 12 16  2  0
 15 16  1  0
 16 17  1  0
 17 18  1  0
 17 19  2  0
 17 20  2  0
  7 21  1  0
  4 22  1  0
 21 22  1  0
M  END
