piperidine-amides-1276-covalent
     RDKit          3D

 23 24  0  0  0  0  0  0  0  0999 V2000
    7.1370   -3.2650   19.1760 C   0  0  0  0  0  0  0  0  0  0  0  0
    6.3470   -4.0340   20.1760 C   0  0  0  0  0  0  0  0  0  0  0  0
    5.2450   -4.5050   19.8570 O   0  0  0  0  0  0  0  0  0  0  0  0
    6.9010   -4.2590   21.4430 N   0  0  0  0  0  0  0  0  0  0  0  0
    7.6660   -3.2430   22.1100 C   0  0  0  0  0  0  0  0  0  0  0  0
    6.7760   -2.7320   23.2310 C   0  0  0  0  0  0  0  0  0  0  0  0
    6.3840   -3.9370   24.0190 C   0  0  0  0  0  0  0  0  0  0  0  0
    5.5400   -3.5950   25.1750 C   0  0  0  0  0  0  0  0  0  0  0  0
    4.3740   -3.2480   24.9440 O   0  0  0  0  0  0  0  0  0  0  0  0
    6.0860   -3.6690   26.4470 N   0  0  0  0  0  0  0  0  0  0  0  0
    5.7460   -4.5690   27.4830 C   0  0  0  0  0  0  0  0  0  0  0  0
    5.7580   -4.1280   28.7680 C   0  0  0  0  0  0  0  0  0  0  0  0
    6.3510   -2.8920   28.9490 C   0  0  0  0  0  0  0  0  0  0  0  0
    7.6000   -3.0770   28.2610 N   0  0  0  0  0  0  0  0  0  0  0  0
    8.0940   -2.0880   27.4760 C   0  0  0  0  0  0  0  0  0  0  0  0
    8.3090   -2.3510   26.0230 C   0  0  1  0  0  0  0  0  0  0  0  0
    9.1660   -1.3890   25.1960 C   0  0  0  0  0  0  0  0  0  0  0  0
    8.7870   -3.5770   25.7520 O   0  0  0  0  0  0  0  0  0  0  0  0
    8.4820   -4.6370   26.6360 C   0  0  1  0  0  0  0  0  0  0  0  0
    9.4160   -5.6550   26.6270 C   0  0  0  0  0  0  0  0  0  0  0  0
    8.2560   -4.3180   28.0720 C   0  0  0  0  0  0  0  0  0  0  0  0
    5.6970   -5.0190   23.2430 C   0  0  0  0  0  0  0  0  0  0  0  0
    6.5070   -5.4020   22.2100 C   0  0  0  0  0  0  0  0  0  0  0  0
  1  2  1  0
  2  3  2  0
  2  4  1  0
  4  5  1  0
  5  6  1  0
  6  7  1  0
  7  8  1  0
  8  9  2  0
  8 10  1  0
 10 11  1  0
 11 12  1  0
 12 13  1  0
 13 14  1  0
 14 15  1  0
 15 16  1  0
 16 17  1  1
 16 18  1  0
 18 19  1  0
 19 20  1  1
 14 21  1  0
 19 21  1  0
  7 22  1  0
  4 23  1  0
 22 23  1  0
M  END
