piperidine-amides-30973-covalent
     RDKit          3D

 27 28  0  0  0  0  0  0  0  0999 V2000
    7.0570   -3.3520   19.3480 C   0  0  0  0  0  0  0  0  0  0  0  0
    6.4040   -4.1940   20.3530 C   0  0  0  0  0  0  0  0  0  0  0  0
    5.4230   -4.8740   20.0010 O   0  0  0  0  0  0  0  0  0  0  0  0
    6.8970   -4.2770   21.6750 N   0  0  0  0  0  0  0  0  0  0  0  0
    7.8080   -3.2600   22.2030 C   0  0  0  0  0  0  0  0  0  0  0  0
    7.4580   -2.9940   23.6460 C   0  0  0  0  0  0  0  0  0  0  0  0
    6.1850   -3.6840   23.9910 C   0  0  0  0  0  0  0  0  0  0  0  0
    5.6170   -3.3180   25.3200 C   0  0  0  0  0  0  0  0  0  0  0  0
    4.6150   -2.5470   25.3430 O   0  0  0  0  0  0  0  0  0  0  0  0
    6.0500   -3.7420   26.5970 N   0  0  0  0  0  0  0  0  0  0  0  0
    5.9090   -2.7240   27.6670 C   0  0  0  0  0  0  0  0  0  0  0  0
    5.7370   -3.3880   28.9610 C   0  0  0  0  0  0  0  0  0  0  0  0
    6.4780   -4.6240   29.0780 C   0  0  0  0  0  0  0  0  0  0  0  0
    6.0200   -5.6150   28.0750 C   0  0  1  0  0  0  0  0  0  0  0  0
    4.8370   -6.2940   28.7480 C   0  0  0  0  0  0  0  0  0  0  0  0
    5.2470   -6.5730   30.1210 N   0  0  0  0  0  0  0  0  0  0  0  0
    6.0330   -7.7610   29.9860 C   0  0  0  0  0  0  0  0  0  0  0  0
    4.3700   -6.6020   31.1470 C   0  0  0  0  0  0  0  0  0  0  0  0
    4.7360   -6.8810   32.3360 O   0  0  0  0  0  0  0  0  0  0  0  0
    3.2010   -6.3310   30.8400 O   0  0  0  0  0  0  0  0  0  0  0  0
    2.3390   -7.4080   30.7970 C   0  0  0  0  0  0  0  0  0  0  0  0
    2.3900   -8.4270   31.9170 C   0  0  0  0  0  0  0  0  0  0  0  0
    2.6800   -8.1270   29.5380 C   0  0  0  0  0  0  0  0  0  0  0  0
    0.9370   -6.9380   30.5810 C   0  0  0  0  0  0  0  0  0  0  0  0
    5.7120   -5.1410   26.8120 C   0  0  0  0  0  0  0  0  0  0  0  0
    6.2130   -5.1370   23.7570 C   0  0  0  0  0  0  0  0  0  0  0  0
    6.6570   -5.4400   22.4900 C   0  0  0  0  0  0  0  0  0  0  0  0
  1  2  1  0
  2  3  2  0
  2  4  1  0
  4  5  1  0
  5  6  1  0
  6  7  1  0
  7  8  1  0
  8  9  2  0
  8 10  1  0
 10 11  1  0
 11 12  1  0
 12 13  1  0
 13 14  1  0
 14 15  1  1
 15 16  1  0
 16 17  1  0
 16 18  1  0
 18 19  2  0
 18 20  1  0
 21 20  1  0
 21 22  1  0
 21 23  1  0
 21 24  1  0
 10 25  1  0
 14 25  1  0
  7 26  1  0
  4 27  1  0
 26 27  1  0
M  END
