piperidine-amides-28-covalent
     RDKit          3D

 21 22  0  0  0  0  0  0  0  0999 V2000
    7.1070   -3.2860   19.3780 C   0  0  0  0  0  0  0  0  0  0  0  0
    6.3800   -4.0710   20.3520 C   0  0  0  0  0  0  0  0  0  0  0  0
    5.3890   -4.7660   19.9550 O   0  0  0  0  0  0  0  0  0  0  0  0
    6.7520   -4.1220   21.7120 N   0  0  0  0  0  0  0  0  0  0  0  0
    6.5280   -5.4650   22.3160 C   0  0  0  0  0  0  0  0  0  0  0  0
    6.6750   -5.1860   23.8580 C   0  0  0  0  0  0  0  0  0  0  0  0
    6.2670   -3.7540   24.0760 C   0  0  0  0  0  0  0  0  0  0  0  0
    5.4000   -3.6560   25.4070 C   0  0  0  0  0  0  0  0  0  0  0  0
    4.4990   -4.4730   25.3550 O   0  0  0  0  0  0  0  0  0  0  0  0
    5.8050   -2.7480   26.2070 N   0  0  0  0  0  0  0  0  0  0  0  0
    6.0550   -1.7940   27.1500 C   0  0  0  0  0  0  0  0  0  0  0  0
    7.0000   -1.3820   28.0410 C   0  0  0  0  0  0  0  0  0  0  0  0
    6.5050   -0.3370   28.8300 C   0  0  1  0  0  0  0  0  0  0  0  0
    7.5430    0.2810   29.5370 O   0  0  0  0  0  0  0  0  0  0  0  0
    8.1490   -0.6560   30.3500 C   0  0  0  0  0  0  0  0  0  0  0  0
    5.8970    0.5470   27.7860 C   0  0  2  0  0  0  0  0  0  0  0  0
    4.6880    0.7730   28.0660 O   0  0  0  0  0  0  0  0  0  0  0  0
    4.4760    1.2780   29.3350 C   0  0  0  0  0  0  0  0  0  0  0  0
    5.9340   -0.3780   26.5690 C   0  0  0  0  0  0  0  0  0  0  0  0
    7.2180   -2.7650   23.6900 C   0  0  0  0  0  0  0  0  0  0  0  0
    7.7210   -3.2550   22.2960 C   0  0  0  0  0  0  0  0  0  0  0  0
  1  2  1  0
  2  3  2  0
  2  4  1  0
  4  5  1  0
  5  6  1  0
  6  7  1  0
  7  8  1  0
  8  9  2  0
  8 10  1  0
 10 11  1  0
 11 12  1  0
 12 13  1  0
 13 14  1  6
 14 15  1  0
 13 16  1  0
 16 17  1  1
 17 18  1  0
 11 19  1  0
 16 19  1  0
  7 20  1  0
  4 21  1  0
 20 21  1  0
M  END
