piperidine-amides-29398-covalent
     RDKit          3D

 27 30  0  0  0  0  0  0  0  0999 V2000
    7.0280   -3.4120   19.4380 C   0  0  0  0  0  0  0  0  0  0  0  0
    6.3730   -4.2830   20.4170 C   0  0  0  0  0  0  0  0  0  0  0  0
    5.4190   -4.9760   20.0080 O   0  0  0  0  0  0  0  0  0  0  0  0
    6.8340   -4.3450   21.7660 N   0  0  0  0  0  0  0  0  0  0  0  0
    7.6790   -3.2680   22.2380 C   0  0  0  0  0  0  0  0  0  0  0  0
    7.5860   -3.1200   23.7290 C   0  0  0  0  0  0  0  0  0  0  0  0
    6.2440   -3.6840   24.1110 C   0  0  0  0  0  0  0  0  0  0  0  0
    5.7500   -3.1420   25.4430 C   0  0  0  0  0  0  0  0  0  0  0  0
    5.3930   -1.9750   25.3860 O   0  0  0  0  0  0  0  0  0  0  0  0
    5.6360   -3.8780   26.6390 N   0  0  0  0  0  0  0  0  0  0  0  0
    6.4910   -3.7070   27.7180 C   0  0  0  0  0  0  0  0  0  0  0  0
    6.7550   -4.8930   28.4080 C   0  0  0  0  0  0  0  0  0  0  0  0
    5.6760   -5.3300   29.1120 C   0  0  0  0  0  0  0  0  0  0  0  0
    5.6150   -6.1980   30.2330 C   0  0  0  0  0  0  0  0  0  0  0  0
    4.2550   -6.5280   30.8600 C   0  0  0  0  0  0  0  0  0  0  0  0
    4.2320   -7.4740   32.0910 C   0  0  0  0  0  0  0  0  0  0  0  0
    5.6090   -7.6230   32.6050 C   0  0  0  0  0  0  0  0  0  0  0  0
    5.5520   -8.5100   33.8150 C   0  0  0  0  0  0  0  0  0  0  0  0
    4.4740   -7.9830   34.7940 C   0  0  0  0  0  0  0  0  0  0  0  0
    3.2530   -7.6570   34.2420 C   0  0  0  0  0  0  0  0  0  0  0  0
    3.3260   -7.0060   33.0310 C   0  0  0  0  0  0  0  0  0  0  0  0
    3.0570   -6.0240   30.3790 C   0  0  0  0  0  0  0  0  0  0  0  0
    3.0780   -5.1300   29.2120 C   0  0  0  0  0  0  0  0  0  0  0  0
    4.3510   -4.7510   28.5400 C   0  0  0  0  0  0  0  0  0  0  0  0
    4.3870   -3.8160   27.3040 C   0  0  0  0  0  0  0  0  0  0  0  0
    6.1160   -5.1580   23.9260 C   0  0  0  0  0  0  0  0  0  0  0  0
    6.6220   -5.5520   22.5430 C   0  0  0  0  0  0  0  0  0  0  0  0
  1  2  1  0
  2  3  2  0
  2  4  1  0
  4  5  1  0
  5  6  1  0
  6  7  1  0
  7  8  1  0
  8  9  2  0
  8 10  1  0
 10 11  1  0
 11 12  1  0
 12 13  1  0
 13 14  2  0
 14 15  1  0
 15 16  1  0
 16 17  1  0
 17 18  1  0
 18 19  1  0
 19 20  1  0
 16 21  1  0
 20 21  1  0
 15 22  2  0
 22 23  1  0
 13 24  1  0
 23 24  2  0
 10 25  1  0
 24 25  1  0
  7 26  1  0
  4 27  1  0
 26 27  1  0
M  END
