piperidine-amides-19111-covalent
     RDKit          3D

 22 24  0  0  0  0  0  0  0  0999 V2000
    7.1000   -3.3630   19.4770 C   0  0  0  0  0  0  0  0  0  0  0  0
    6.4190   -4.2240   20.4120 C   0  0  0  0  0  0  0  0  0  0  0  0
    5.4310   -4.9130   20.0000 O   0  0  0  0  0  0  0  0  0  0  0  0
    6.8540   -4.3300   21.7500 N   0  0  0  0  0  0  0  0  0  0  0  0
    6.6070   -5.6020   22.4600 C   0  0  0  0  0  0  0  0  0  0  0  0
    5.7100   -5.0430   23.6290 C   0  0  0  0  0  0  0  0  0  0  0  0
    6.6470   -4.2620   24.5280 C   0  0  0  0  0  0  0  0  0  0  0  0
    5.8620   -3.6130   25.7850 C   0  0  0  0  0  0  0  0  0  0  0  0
    5.0870   -2.7340   25.3960 O   0  0  0  0  0  0  0  0  0  0  0  0
    6.2580   -4.2130   26.9010 N   0  0  0  0  0  0  0  0  0  0  0  0
    7.0300   -5.1140   27.6100 C   0  0  0  0  0  0  0  0  0  0  0  0
    8.2430   -4.8460   28.0480 C   0  0  0  0  0  0  0  0  0  0  0  0
    9.3300   -5.6970   28.1980 O   0  0  0  0  0  0  0  0  0  0  0  0
    7.9850   -3.4610   28.2630 N   0  0  0  0  0  0  0  0  0  0  0  0
    6.6610   -3.3900   28.5110 C   0  0  0  0  0  0  0  0  0  0  0  0
    6.4440   -4.1650   27.0270 C   0  0  0  0  0  0  0  0  0  0  0  0
    7.9450   -3.9980   27.1740 C   0  0  0  0  0  0  0  0  0  0  0  0
    6.7260   -3.8480   27.6090 C   0  0  0  0  0  0  0  0  0  0  0  0
    5.4530   -4.2880   26.9120 C   0  0  0  0  0  0  0  0  0  0  0  0
    5.3170   -3.7270   28.0170 C   0  0  0  0  0  0  0  0  0  0  0  0
    7.6510   -3.4510   23.7440 C   0  0  0  0  0  0  0  0  0  0  0  0
    7.1770   -3.1420   22.4870 C   0  0  0  0  0  0  0  0  0  0  0  0
  1  2  1  0
  2  3  2  0
  2  4  1  0
  4  5  1  0
  5  6  1  0
  6  7  1  0
  7  8  1  0
  8  9  2  0
  8 10  1  0
 10 11  1  0
 11 12  1  0
 12 13  2  0
 12 14  1  0
 14 15  1  0
 15 16  2  0
 16 17  1  0
 17 18  2  0
 18 19  1  0
 10 20  1  0
 15 20  1  0
 19 20  2  0
  7 21  1  0
  4 22  1  0
 21 22  1  0
M  END
