piperidine-amides-30399-covalent
     RDKit          3D

 27 29  0  0  0  0  0  0  0  0999 V2000
    7.0790   -3.2650   19.1550 C   0  0  0  0  0  0  0  0  0  0  0  0
    6.2780   -3.9880   20.1530 C   0  0  0  0  0  0  0  0  0  0  0  0
    5.1970   -4.4830   19.8320 O   0  0  0  0  0  0  0  0  0  0  0  0
    6.7240   -4.1770   21.4580 N   0  0  0  0  0  0  0  0  0  0  0  0
    6.3670   -5.3320   22.2320 C   0  0  0  0  0  0  0  0  0  0  0  0
    5.9310   -4.8090   23.5820 C   0  0  0  0  0  0  0  0  0  0  0  0
    5.5840   -3.3360   23.5980 C   0  0  0  0  0  0  0  0  0  0  0  0
    5.1100   -2.8790   24.9220 C   0  0  0  0  0  0  0  0  0  0  0  0
    3.9170   -3.1060   25.2800 O   0  0  0  0  0  0  0  0  0  0  0  0
    5.9200   -2.1880   25.8570 N   0  0  0  0  0  0  0  0  0  0  0  0
    6.2320   -0.7560   25.7300 C   0  0  0  0  0  0  0  0  0  0  0  0
    5.9430   -2.7130   27.2050 C   0  0  0  0  0  0  0  0  0  0  0  0
    6.3640   -4.0830   27.1130 C   0  0  2  0  0  0  0  0  0  0  0  0
    6.0340   -4.5950   28.1970 O   0  0  0  0  0  0  0  0  0  0  0  0
    6.4250   -5.9020   28.2910 C   0  0  0  0  0  0  0  0  0  0  0  0
    7.9090   -5.9070   28.4080 C   0  0  0  0  0  0  0  0  0  0  0  0
    8.4240   -5.1370   27.3260 N   0  0  0  0  0  0  0  0  0  0  0  0
    8.9980   -6.0040   26.3270 C   0  0  0  0  0  0  0  0  0  0  0  0
    7.7380   -4.0960   26.8990 C   0  0  1  0  0  0  0  0  0  0  0  0
    8.2040   -3.6110   25.6880 C   0  0  0  0  0  0  0  0  0  0  0  0
    8.5900   -4.2840   24.4400 C   0  0  0  0  0  0  0  0  0  0  0  0
    9.0200   -3.3290   23.4990 N   0  0  0  0  0  0  0  0  0  0  0  0
    8.9240   -2.1100   24.0460 N   0  0  0  0  0  0  0  0  0  0  0  0
    9.2910   -1.0340   23.2850 C   0  0  0  0  0  0  0  0  0  0  0  0
    8.4530   -2.2150   25.3190 C   0  0  0  0  0  0  0  0  0  0  0  0
    6.6960   -2.4700   23.1060 C   0  0  0  0  0  0  0  0  0  0  0  0
    7.4560   -3.0950   22.0100 C   0  0  0  0  0  0  0  0  0  0  0  0
  1  2  1  0
  2  3  2  0
  2  4  1  0
  4  5  1  0
  5  6  1  0
  6  7  1  0
  7  8  1  0
  8  9  2  0
  8 10  1  0
 10 11  1  0
 10 12  1  0
 13 12  1  1
 13 14  1  0
 14 15  1  0
 15 16  1  0
 16 17  1  0
 17 18  1  0
 13 19  1  0
 17 19  1  0
 19 20  1  6
 20 21  1  0
 21 22  2  0
 22 23  1  0
 23 24  1  0
 20 25  2  0
 23 25  1  0
  7 26  1  0
  4 27  1  0
 26 27  1  0
M  END
