piperidine-amides-6645-covalent
     RDKit          3D

 24 25  0  0  0  0  0  0  0  0999 V2000
    7.1260   -3.2690   19.2530 C   0  0  0  0  0  0  0  0  0  0  0  0
    6.3850   -4.0790   20.2300 C   0  0  0  0  0  0  0  0  0  0  0  0
    5.3110   -4.6310   19.9120 O   0  0  0  0  0  0  0  0  0  0  0  0
    6.9050   -4.2830   21.5090 N   0  0  0  0  0  0  0  0  0  0  0  0
    6.4560   -5.4390   22.2410 C   0  0  0  0  0  0  0  0  0  0  0  0
    5.6110   -4.8700   23.3790 C   0  0  0  0  0  0  0  0  0  0  0  0
    6.5350   -3.9750   24.1770 C   0  0  0  0  0  0  0  0  0  0  0  0
    5.8020   -3.4310   25.3350 C   0  0  0  0  0  0  0  0  0  0  0  0
    4.5660   -3.2670   25.2360 O   0  0  0  0  0  0  0  0  0  0  0  0
    6.5120   -3.1050   26.5110 N   0  0  0  0  0  0  0  0  0  0  0  0
    6.3020   -3.8290   27.7400 C   0  0  2  0  0  0  0  0  0  0  0  0
    5.9230   -5.2730   27.4510 C   0  0  0  0  0  0  0  0  0  0  0  0
    5.2450   -3.1330   28.4710 C   0  0  1  0  0  0  0  0  0  0  0  0
    4.6860   -3.7190   29.4380 O   0  0  0  0  0  0  0  0  0  0  0  0
    3.4680   -3.2420   29.8210 C   0  0  0  0  0  0  0  0  0  0  0  0
    5.6490   -1.9340   28.9670 C   0  0  0  0  0  0  0  0  0  0  0  0
    4.8280   -0.9160   29.1340 C   0  0  0  0  0  0  0  0  0  0  0  0
    5.0440    0.4640   29.6620 C   0  0  0  0  0  0  0  0  0  0  0  0
    6.5670    0.2960   29.9550 C   0  0  0  0  0  0  0  0  0  0  0  0
    7.0320    1.4620   30.4700 F   0  0  0  0  0  0  0  0  0  0  0  0
    7.6830   -0.7770   29.8370 C   0  0  0  0  0  0  0  0  0  0  0  0
    6.9420   -1.8980   29.2720 C   0  0  0  0  0  0  0  0  0  0  0  0
    6.9970   -2.8170   23.3370 C   0  0  0  0  0  0  0  0  0  0  0  0
    7.5660   -3.2030   22.1640 C   0  0  0  0  0  0  0  0  0  0  0  0
  1  2  1  0
  2  3  2  0
  2  4  1  0
  4  5  1  0
  5  6  1  0
  6  7  1  0
  7  8  1  0
  8  9  2  0
  8 10  1  0
 10 11  1  0
 11 12  1  6
 11 13  1  0
 13 14  1  1
 14 15  1  0
 13 16  1  0
 16 17  2  0
 17 18  1  0
 18 19  2  0
 19 20  1  0
 19 21  1  0
 16 22  1  0
 21 22  2  0
  7 23  1  0
  4 24  1  0
 23 24  1  0
M  END
