piperidine-amides-1741-covalent
     RDKit          3D

 20 21  0  0  0  0  0  0  0  0999 V2000
    7.1020   -3.2820   19.2520 C   0  0  0  0  0  0  0  0  0  0  0  0
    6.2940   -4.0470   20.2420 C   0  0  0  0  0  0  0  0  0  0  0  0
    5.2260   -4.5600   19.8780 O   0  0  0  0  0  0  0  0  0  0  0  0
    6.7740   -4.2200   21.5540 N   0  0  0  0  0  0  0  0  0  0  0  0
    6.6620   -5.4810   22.2500 C   0  0  0  0  0  0  0  0  0  0  0  0
    6.0340   -5.2250   23.6250 C   0  0  0  0  0  0  0  0  0  0  0  0
    6.0310   -3.7550   23.8690 C   0  0  0  0  0  0  0  0  0  0  0  0
    5.5400   -3.3880   25.2140 C   0  0  0  0  0  0  0  0  0  0  0  0
    4.5860   -4.0390   25.6480 O   0  0  0  0  0  0  0  0  0  0  0  0
    6.1250   -2.3410   25.9190 N   0  0  0  0  0  0  0  0  0  0  0  0
    7.0410   -2.3840   26.9890 C   0  0  0  0  0  0  0  0  0  0  0  0
    7.8720   -1.3170   27.1940 C   0  0  0  0  0  0  0  0  0  0  0  0
    8.8980   -1.2600   26.2470 C   0  0  0  0  0  0  0  0  0  0  0  0
    7.1330   -0.0070   27.0410 C   0  0  0  0  0  0  0  0  0  0  0  0
    6.0190    0.1060   28.0170 C   0  0  0  0  0  0  0  0  0  0  0  0
    6.4050    0.0290   29.4900 C   0  0  0  0  0  0  0  0  0  0  0  0
    7.4790   -1.0480   29.5590 C   0  0  0  0  0  0  0  0  0  0  0  0
    8.3440   -1.2510   28.4930 C   0  0  0  0  0  0  0  0  0  0  0  0
    7.3410   -3.0950   23.6080 C   0  0  0  0  0  0  0  0  0  0  0  0
    7.6210   -3.1890   22.1270 C   0  0  0  0  0  0  0  0  0  0  0  0
  1  2  1  0
  2  3  2  0
  2  4  1  0
  4  5  1  0
  5  6  1  0
  6  7  1  0
  7  8  1  0
  8  9  2  0
  8 10  1  0
 10 11  1  0
 12 11  1  0
 12 13  1  0
 12 14  1  0
 14 15  1  0
 15 16  1  0
 16 17  1  0
 12 18  1  0
 17 18  1  0
  7 19  1  0
  4 20  1  0
 19 20  1  0
M  END
