piperidine-amides-9125-covalent
     RDKit          3D

 21 23  0  0  0  0  0  0  0  0999 V2000
    7.0780   -3.2910   19.2260 C   0  0  0  0  0  0  0  0  0  0  0  0
    6.3430   -4.0420   20.2500 C   0  0  0  0  0  0  0  0  0  0  0  0
    5.3260   -4.6790   19.9290 O   0  0  0  0  0  0  0  0  0  0  0  0
    6.7940   -4.0850   21.5780 N   0  0  0  0  0  0  0  0  0  0  0  0
    7.7610   -3.1230   22.0660 C   0  0  0  0  0  0  0  0  0  0  0  0
    7.5500   -3.0370   23.5430 C   0  0  0  0  0  0  0  0  0  0  0  0
    6.1760   -3.4750   23.9190 C   0  0  0  0  0  0  0  0  0  0  0  0
    5.8660   -3.1480   25.3310 C   0  0  0  0  0  0  0  0  0  0  0  0
    4.7880   -3.5350   25.8700 O   0  0  0  0  0  0  0  0  0  0  0  0
    6.7800   -2.3860   26.0960 N   0  0  0  0  0  0  0  0  0  0  0  0
    6.4050   -1.6290   27.3170 C   0  0  1  0  0  0  0  0  0  0  0  0
    5.5820   -0.4530   26.9420 C   0  0  0  0  0  0  0  0  0  0  0  0
    5.6790    0.6250   27.6960 N   0  0  0  0  0  0  0  0  0  0  0  0
    4.8330    1.5610   27.1440 C   0  0  0  0  0  0  0  0  0  0  0  0
    4.2470    1.1260   26.1330 O   0  0  0  0  0  0  0  0  0  0  0  0
    4.6690   -0.1330   25.9450 N   0  0  0  0  0  0  0  0  0  0  0  0
    5.7440   -2.4880   28.3780 C   0  0  0  0  0  0  0  0  0  0  0  0
    4.3720   -2.2880   28.2150 C   0  0  0  0  0  0  0  0  0  0  0  0
    5.0100   -1.5510   29.4140 C   0  0  0  0  0  0  0  0  0  0  0  0
    6.0300   -4.9480   23.6040 C   0  0  0  0  0  0  0  0  0  0  0  0
    6.5540   -5.2920   22.3440 C   0  0  0  0  0  0  0  0  0  0  0  0
  1  2  1  0
  2  3  2  0
  2  4  1  0
  4  5  1  0
  5  6  1  0
  6  7  1  0
  7  8  1  0
  8  9  2  0
  8 10  1  0
 11 10  1  6
 11 12  1  0
 12 13  1  0
 13 14  2  0
 14 15  1  0
 12 16  2  0
 15 16  1  0
 11 17  1  0
 17 18  1  0
 17 19  1  0
 18 19  1  0
  7 20  1  0
  4 21  1  0
 20 21  1  0
M  END
