piperidine-amides-17033-covalent
     RDKit          3D

 20 21  0  0  0  0  0  0  0  0999 V2000
    7.0990   -3.3600   19.3350 C   0  0  0  0  0  0  0  0  0  0  0  0
    6.4650   -4.2290   20.3420 C   0  0  0  0  0  0  0  0  0  0  0  0
    5.4130   -4.8230   19.9860 O   0  0  0  0  0  0  0  0  0  0  0  0
    7.0510   -4.4360   21.6230 N   0  0  0  0  0  0  0  0  0  0  0  0
    6.5340   -5.4540   22.4550 C   0  0  0  0  0  0  0  0  0  0  0  0
    6.0640   -5.0050   23.7740 C   0  0  0  0  0  0  0  0  0  0  0  0
    6.4670   -3.6590   24.2860 C   0  0  0  0  0  0  0  0  0  0  0  0
    5.3180   -3.0520   25.0430 C   0  0  0  0  0  0  0  0  0  0  0  0
    4.3790   -2.5650   24.4080 O   0  0  0  0  0  0  0  0  0  0  0  0
    5.2040   -3.0080   26.4420 N   0  0  0  0  0  0  0  0  0  0  0  0
    4.1580   -3.5090   27.1380 C   0  0  0  0  0  0  0  0  0  0  0  0
    4.5910   -4.6070   27.9120 C   0  0  0  0  0  0  0  0  0  0  0  0
    6.1300   -4.4750   28.0140 C   0  0  2  0  0  0  0  0  0  0  0  0
    6.0750   -4.5350   29.4380 N   0  0  0  0  0  0  0  0  0  0  0  0
    5.4110   -3.2980   29.7710 C   0  0  0  0  0  0  0  0  0  0  0  0
    5.5740   -5.7820   29.9150 C   0  0  0  0  0  0  0  0  0  0  0  0
    6.2050   -6.8880   29.1460 C   0  0  0  0  0  0  0  0  0  0  0  0
    6.3450   -3.1850   27.2190 C   0  0  0  0  0  0  0  0  0  0  0  0
    6.9770   -2.6570   23.2680 C   0  0  0  0  0  0  0  0  0  0  0  0
    7.8230   -3.4030   22.2710 C   0  0  0  0  0  0  0  0  0  0  0  0
  1  2  1  0
  2  3  2  0
  2  4  1  0
  4  5  1  0
  5  6  1  0
  6  7  1  0
  7  8  1  0
  8  9  2  0
  8 10  1  0
 10 11  1  0
 11 12  1  0
 12 13  1  0
 13 14  1  1
 14 15  1  0
 14 16  1  0
 16 17  1  0
 10 18  1  0
 13 18  1  0
  7 19  1  0
  4 20  1  0
 19 20  1  0
M  END
