piperidine-amides-8892-covalent
     RDKit          3D

 22 23  0  0  0  0  0  0  0  0999 V2000
    7.0540   -3.3100   19.3190 C   0  0  0  0  0  0  0  0  0  0  0  0
    6.3020   -4.0660   20.3230 C   0  0  0  0  0  0  0  0  0  0  0  0
    5.3030   -4.6910   19.9310 O   0  0  0  0  0  0  0  0  0  0  0  0
    6.7180   -4.1140   21.6850 N   0  0  0  0  0  0  0  0  0  0  0  0
    7.6470   -3.1290   22.1750 C   0  0  0  0  0  0  0  0  0  0  0  0
    7.4290   -2.9660   23.6440 C   0  0  0  0  0  0  0  0  0  0  0  0
    6.0720   -3.5790   23.8770 C   0  0  0  0  0  0  0  0  0  0  0  0
    5.5450   -3.3290   25.2670 C   0  0  0  0  0  0  0  0  0  0  0  0
    4.3320   -3.1590   25.3470 O   0  0  0  0  0  0  0  0  0  0  0  0
    6.4120   -3.3030   26.3580 N   0  0  0  0  0  0  0  0  0  0  0  0
    6.1430   -4.0230   27.5750 C   0  0  0  0  0  0  0  0  0  0  0  0
    5.8120   -5.3830   27.4070 C   0  0  0  0  0  0  0  0  0  0  0  0
    6.1480   -6.3160   28.3680 C   0  0  0  0  0  0  0  0  0  0  0  0
    5.9450   -5.9080   29.7160 N   0  0  0  0  0  0  0  0  0  0  0  0
    4.9650   -6.6730   30.3890 C   0  0  0  0  0  0  0  0  0  0  0  0
    3.7970   -7.1710   29.5950 C   0  0  0  0  0  0  0  0  0  0  0  0
    2.7080   -7.9990   30.2850 C   0  0  0  0  0  0  0  0  0  0  0  0
    2.7890   -8.3170   31.7210 C   0  0  0  0  0  0  0  0  0  0  0  0
    3.9650   -7.8190   32.5190 C   0  0  0  0  0  0  0  0  0  0  0  0
    5.0370   -6.9830   31.7590 C   0  0  0  0  0  0  0  0  0  0  0  0
    6.1600   -5.0790   23.6880 C   0  0  0  0  0  0  0  0  0  0  0  0
    6.6190   -5.3650   22.4090 C   0  0  0  0  0  0  0  0  0  0  0  0
  1  2  1  0
  2  3  2  0
  2  4  1  0
  4  5  1  0
  5  6  1  0
  6  7  1  0
  7  8  1  0
  8  9  2  0
  8 10  1  0
 10 11  1  0
 11 12  1  0
 12 13  1  0
 13 14  1  0
 14 15  1  0
 15 16  2  0
 16 17  1  0
 17 18  2  0
 18 19  1  0
 15 20  1  0
 19 20  2  0
  7 21  1  0
  4 22  1  0
 21 22  1  0
M  END
