piperidine-amides-2460-covalent
     RDKit          3D

 26 28  0  0  0  0  0  0  0  0999 V2000
    7.1060   -3.2710   19.2000 C   0  0  0  0  0  0  0  0  0  0  0  0
    6.3560   -4.0590   20.2130 C   0  0  0  0  0  0  0  0  0  0  0  0
    5.2720   -4.5220   19.8720 O   0  0  0  0  0  0  0  0  0  0  0  0
    6.9110   -4.2970   21.4710 N   0  0  0  0  0  0  0  0  0  0  0  0
    6.5540   -5.4470   22.2440 C   0  0  0  0  0  0  0  0  0  0  0  0
    5.7040   -5.0020   23.3990 C   0  0  0  0  0  0  0  0  0  0  0  0
    6.4170   -3.9050   24.2070 C   0  0  0  0  0  0  0  0  0  0  0  0
    5.4630   -3.4330   25.2190 C   0  0  0  0  0  0  0  0  0  0  0  0
    4.2490   -3.4670   24.9820 O   0  0  0  0  0  0  0  0  0  0  0  0
    5.8960   -2.9190   26.4440 N   0  0  0  0  0  0  0  0  0  0  0  0
    6.8060   -3.6740   27.2580 C   0  0  2  0  0  0  0  0  0  0  0  0
    8.1470   -3.7240   26.5530 C   0  0  0  0  0  0  0  0  0  0  0  0
    8.3190   -2.6400   25.7270 C   0  0  0  0  0  0  0  0  0  0  0  0
    9.3910   -2.4020   25.0450 C   0  0  0  0  0  0  0  0  0  0  0  0
   10.3540   -3.2620   25.1670 C   0  0  0  0  0  0  0  0  0  0  0  0
   11.8210   -2.9160   24.2750 Cl  0  0  0  0  0  0  0  0  0  0  0  0
   10.3850   -4.5270   25.9890 C   0  0  0  0  0  0  0  0  0  0  0  0
    9.1200   -4.8590   26.8240 C   0  0  0  0  0  0  0  0  0  0  0  0
    6.2670   -5.0280   27.6750 C   0  0  0  0  0  0  0  0  0  0  0  0
    5.3830   -5.8120   26.8340 C   0  0  0  0  0  0  0  0  0  0  0  0
    5.1340   -6.9660   27.6780 C   0  0  0  0  0  0  0  0  0  0  0  0
    5.8480   -6.7980   28.8840 N   0  0  0  0  0  0  0  0  0  0  0  0
    5.8220   -7.7400   29.9270 C   0  0  0  0  0  0  0  0  0  0  0  0
    6.5310   -5.6250   28.8690 N   0  0  0  0  0  0  0  0  0  0  0  0
    6.8030   -2.7500   23.3090 C   0  0  0  0  0  0  0  0  0  0  0  0
    7.6320   -3.2590   22.1720 C   0  0  0  0  0  0  0  0  0  0  0  0
  1  2  1  0
  2  3  2  0
  2  4  1  0
  4  5  1  0
  5  6  1  0
  6  7  1  0
  7  8  1  0
  8  9  2  0
  8 10  1  0
 11 10  1  6
 11 12  1  0
 12 13  2  0
 13 14  1  0
 14 15  2  0
 15 16  1  0
 15 17  1  0
 12 18  1  0
 17 18  2  0
 11 19  1  0
 19 20  1  0
 20 21  2  0
 21 22  1  0
 22 23  1  0
 19 24  2  0
 22 24  1  0
  7 25  1  0
  4 26  1  0
 25 26  1  0
M  END
