piperidine-amides-29961-covalent
     RDKit          3D

 27 30  0  0  0  0  0  0  0  0999 V2000
    7.0380   -3.3730   19.3450 C   0  0  0  0  0  0  0  0  0  0  0  0
    6.3810   -4.2380   20.3170 C   0  0  0  0  0  0  0  0  0  0  0  0
    5.3680   -4.8500   19.9830 O   0  0  0  0  0  0  0  0  0  0  0  0
    6.9400   -4.4270   21.6290 N   0  0  0  0  0  0  0  0  0  0  0  0
    7.6680   -3.3780   22.2940 C   0  0  0  0  0  0  0  0  0  0  0  0
    6.8320   -2.7810   23.3860 C   0  0  0  0  0  0  0  0  0  0  0  0
    6.3050   -3.8860   24.2950 C   0  0  0  0  0  0  0  0  0  0  0  0
    5.2090   -3.3250   25.1450 C   0  0  0  0  0  0  0  0  0  0  0  0
    4.2190   -2.7830   24.6340 O   0  0  0  0  0  0  0  0  0  0  0  0
    5.2650   -3.3940   26.5580 N   0  0  0  0  0  0  0  0  0  0  0  0
    6.5130   -3.1770   27.1220 C   0  0  0  0  0  0  0  0  0  0  0  0
    6.5930   -4.1830   28.2600 C   0  0  0  0  0  0  0  0  0  0  0  0
    5.6820   -3.8540   29.1910 C   0  0  0  0  0  0  0  0  0  0  0  0
    4.7860   -4.7740   29.7290 C   0  0  0  0  0  0  0  0  0  0  0  0
    3.8000   -4.4200   30.6430 N   0  0  0  0  0  0  0  0  0  0  0  0
    3.2000   -5.6100   30.8540 C   0  0  0  0  0  0  0  0  0  0  0  0
    2.0790   -5.8390   31.7370 C   0  0  0  0  0  0  0  0  0  0  0  0
    1.5750   -7.1040   31.8440 C   0  0  0  0  0  0  0  0  0  0  0  0
    2.0920   -8.1740   31.1440 C   0  0  0  0  0  0  0  0  0  0  0  0
    1.4600   -9.3550   31.3770 F   0  0  0  0  0  0  0  0  0  0  0  0
    3.1880   -7.9910   30.2730 C   0  0  0  0  0  0  0  0  0  0  0  0
    3.7490   -6.6440   30.1390 C   0  0  0  0  0  0  0  0  0  0  0  0
    4.7150   -6.1660   29.4510 O   0  0  0  0  0  0  0  0  0  0  0  0
    4.7890   -2.9330   28.7560 C   0  0  0  0  0  0  0  0  0  0  0  0
    4.2050   -3.1430   27.5090 C   0  0  0  0  0  0  0  0  0  0  0  0
    5.7070   -5.0560   23.5280 C   0  0  0  0  0  0  0  0  0  0  0  0
    6.6170   -5.5790   22.4120 C   0  0  0  0  0  0  0  0  0  0  0  0
  1  2  1  0
  2  3  2  0
  2  4  1  0
  4  5  1  0
  5  6  1  0
  6  7  1  0
  7  8  1  0
  8  9  2  0
  8 10  1  0
 10 11  1  0
 11 12  1  0
 12 13  1  0
 13 14  1  0
 14 15  2  0
 15 16  1  0
 16 17  2  0
 17 18  1  0
 18 19  2  0
 19 20  1  0
 19 21  1  0
 16 22  1  0
 21 22  2  0
 14 23  1  0
 22 23  1  0
 13 24  1  0
 10 25  1  0
 24 25  1  0
  7 26  1  0
  4 27  1  0
 26 27  1  0
M  END
