piperidine-amides-2778-covalent
     RDKit          3D

 24 26  0  0  0  0  0  0  0  0999 V2000
    7.0270   -3.3450   19.3350 C   0  0  0  0  0  0  0  0  0  0  0  0
    6.3430   -4.1690   20.3320 C   0  0  0  0  0  0  0  0  0  0  0  0
    5.3870   -4.8620   19.9870 O   0  0  0  0  0  0  0  0  0  0  0  0
    6.8030   -4.2150   21.6950 N   0  0  0  0  0  0  0  0  0  0  0  0
    7.6980   -3.1890   22.1800 C   0  0  0  0  0  0  0  0  0  0  0  0
    7.4100   -2.9070   23.6180 C   0  0  0  0  0  0  0  0  0  0  0  0
    6.0840   -3.5700   23.9150 C   0  0  0  0  0  0  0  0  0  0  0  0
    5.6210   -3.1870   25.2770 C   0  0  0  0  0  0  0  0  0  0  0  0
    4.4180   -3.1530   25.5970 O   0  0  0  0  0  0  0  0  0  0  0  0
    6.6110   -2.8600   26.2250 N   0  0  0  0  0  0  0  0  0  0  0  0
    6.5020   -1.6650   27.0390 C   0  0  0  0  0  0  0  0  0  0  0  0
    7.0530   -1.5640   28.4310 C   0  0  0  0  0  0  0  0  0  0  0  0
    6.9250   -0.4010   29.1750 C   0  0  0  0  0  0  0  0  0  0  0  0
    6.2670    0.7290   28.6420 C   0  0  0  0  0  0  0  0  0  0  0  0
    5.7310    0.7100   27.3640 C   0  0  0  0  0  0  0  0  0  0  0  0
    5.8220   -0.4210   26.5560 C   0  0  0  0  0  0  0  0  0  0  0  0
    5.2390   -0.2160   25.3630 C   0  0  0  0  0  0  0  0  0  0  0  0
    4.7750    1.1190   25.4410 C   0  0  0  0  0  0  0  0  0  0  0  0
    5.0450    1.7730   26.7180 N   0  0  0  0  0  0  0  0  0  0  0  0
    4.0390    2.4500   27.3140 C   0  0  0  0  0  0  0  0  0  0  0  0
    3.4880    2.0990   28.6280 C   0  0  0  0  0  0  0  0  0  0  0  0
    3.5080    3.5230   26.6540 O   0  0  0  0  0  0  0  0  0  0  0  0
    6.1260   -5.0790   23.7320 C   0  0  0  0  0  0  0  0  0  0  0  0
    6.6260   -5.4180   22.4670 C   0  0  0  0  0  0  0  0  0  0  0  0
  1  2  1  0
  2  3  2  0
  2  4  1  0
  4  5  1  0
  5  6  1  0
  6  7  1  0
  7  8  1  0
  8  9  2  0
  8 10  1  0
 10 11  1  0
 11 12  2  0
 12 13  1  0
 13 14  2  0
 14 15  1  0
 11 16  1  0
 15 16  2  0
 16 17  1  0
 17 18  1  0
 15 19  1  0
 18 19  1  0
 19 20  1  0
 20 21  1  0
 20 22  2  0
  7 23  1  0
  4 24  1  0
 23 24  1  0
M  END
