piperidine-amides-19430-covalent
     RDKit          3D

 22 24  0  0  0  0  0  0  0  0999 V2000
    6.9550   -3.4150   19.4250 C   0  0  0  0  0  0  0  0  0  0  0  0
    6.3160   -4.2300   20.4430 C   0  0  0  0  0  0  0  0  0  0  0  0
    5.4080   -5.0130   20.0200 O   0  0  0  0  0  0  0  0  0  0  0  0
    6.6510   -4.2410   21.8310 N   0  0  0  0  0  0  0  0  0  0  0  0
    6.6080   -5.5820   22.4740 C   0  0  0  0  0  0  0  0  0  0  0  0
    6.1670   -5.2940   23.9730 C   0  0  0  0  0  0  0  0  0  0  0  0
    6.0290   -3.8020   24.1350 C   0  0  0  0  0  0  0  0  0  0  0  0
    5.0710   -3.3430   25.3710 C   0  0  0  0  0  0  0  0  0  0  0  0
    3.9990   -3.0080   24.9080 O   0  0  0  0  0  0  0  0  0  0  0  0
    5.6250   -3.4320   26.5300 N   0  0  0  0  0  0  0  0  0  0  0  0
    6.4820   -3.6200   27.4770 C   0  0  0  0  0  0  0  0  0  0  0  0
    6.7610   -4.6760   28.2620 C   0  0  0  0  0  0  0  0  0  0  0  0
    5.5750   -4.9700   28.8660 C   0  0  0  0  0  0  0  0  0  0  0  0
    4.9500   -5.9170   29.7350 C   0  0  0  0  0  0  0  0  0  0  0  0
    5.9360   -7.0080   30.1560 C   0  0  0  0  0  0  0  0  0  0  0  0
    3.5870   -5.6470   30.0040 N   0  0  0  0  0  0  0  0  0  0  0  0
    3.2440   -4.5070   29.3120 N   0  0  0  0  0  0  0  0  0  0  0  0
    2.0120   -4.0370   29.3910 C   0  0  0  0  0  0  0  0  0  0  0  0
    4.4490   -4.0560   28.5880 C   0  0  0  0  0  0  0  0  0  0  0  0
    4.8470   -2.8780   27.6190 C   0  0  0  0  0  0  0  0  0  0  0  0
    7.2930   -3.0900   23.7570 C   0  0  0  0  0  0  0  0  0  0  0  0
    7.5050   -3.2100   22.3910 C   0  0  0  0  0  0  0  0  0  0  0  0
  1  2  1  0
  2  3  2  0
  2  4  1  0
  4  5  1  0
  5  6  1  0
  6  7  1  0
  7  8  1  0
  8  9  2  0
  8 10  1  0
 10 11  1  0
 11 12  1  0
 12 13  1  0
 13 14  1  0
 14 15  1  0
 14 16  2  0
 16 17  1  0
 17 18  1  0
 13 19  2  0
 17 19  1  0
 10 20  1  0
 19 20  1  0
  7 21  1  0
  4 22  1  0
 21 22  1  0
M  END
