piperidine-amides-1584-covalent
     RDKit          3D

 21 22  0  0  0  0  0  0  0  0999 V2000
    7.1320   -3.2780   19.2500 C   0  0  0  0  0  0  0  0  0  0  0  0
    6.3810   -4.0760   20.2600 C   0  0  0  0  0  0  0  0  0  0  0  0
    5.3150   -4.6180   19.9150 O   0  0  0  0  0  0  0  0  0  0  0  0
    6.9290   -4.2310   21.5520 N   0  0  0  0  0  0  0  0  0  0  0  0
    7.6860   -3.1780   22.1720 C   0  0  0  0  0  0  0  0  0  0  0  0
    6.8300   -2.6730   23.3340 C   0  0  0  0  0  0  0  0  0  0  0  0
    6.4310   -3.8560   24.1560 C   0  0  0  0  0  0  0  0  0  0  0  0
    5.7120   -3.4490   25.3820 C   0  0  0  0  0  0  0  0  0  0  0  0
    4.4840   -3.5860   25.3680 O   0  0  0  0  0  0  0  0  0  0  0  0
    6.4080   -2.9280   26.4750 N   0  0  0  0  0  0  0  0  0  0  0  0
    6.6350   -1.5550   26.7360 C   0  0  0  0  0  0  0  0  0  0  0  0
    5.6260   -0.6240   26.8080 C   0  0  0  0  0  0  0  0  0  0  0  0
    4.6840   -0.5800   25.7520 C   0  0  0  0  0  0  0  0  0  0  0  0
    3.6270    0.3010   25.6980 C   0  0  0  0  0  0  0  0  0  0  0  0
    3.4230    1.2780   26.7830 C   0  0  0  0  0  0  0  0  0  0  0  0
    4.3800    1.3150   27.9650 C   0  0  0  0  0  0  0  0  0  0  0  0
    4.1230    2.2720   28.9600 F   0  0  0  0  0  0  0  0  0  0  0  0
    5.4840    0.2610   27.8410 C   0  0  0  0  0  0  0  0  0  0  0  0
    6.3680    0.2760   28.9090 F   0  0  0  0  0  0  0  0  0  0  0  0
    5.5410   -4.8160   23.3520 C   0  0  0  0  0  0  0  0  0  0  0  0
    6.4470   -5.3530   22.3100 C   0  0  0  0  0  0  0  0  0  0  0  0
  1  2  1  0
  2  3  2  0
  2  4  1  0
  4  5  1  0
  5  6  1  0
  6  7  1  0
  7  8  1  0
  8  9  2  0
  8 10  1  0
 10 11  1  0
 11 12  1  0
 12 13  2  0
 13 14  1  0
 14 15  2  0
 15 16  1  0
 16 17  1  0
 12 18  1  0
 16 18  2  0
 18 19  1  0
  7 20  1  0
  4 21  1  0
 20 21  1  0
M  END
