piperidine-amides-6911-covalent
     RDKit          3D

 22 23  0  0  0  0  0  0  0  0999 V2000
    7.1000   -3.2890   19.2330 C   0  0  0  0  0  0  0  0  0  0  0  0
    6.3790   -4.0810   20.2410 C   0  0  0  0  0  0  0  0  0  0  0  0
    5.3240   -4.6780   19.9340 O   0  0  0  0  0  0  0  0  0  0  0  0
    6.8860   -4.2240   21.5380 N   0  0  0  0  0  0  0  0  0  0  0  0
    7.7100   -3.1850   22.1180 C   0  0  0  0  0  0  0  0  0  0  0  0
    6.9240   -2.6200   23.2990 C   0  0  0  0  0  0  0  0  0  0  0  0
    6.5260   -3.8100   24.1420 C   0  0  0  0  0  0  0  0  0  0  0  0
    5.7990   -3.3610   25.3480 C   0  0  0  0  0  0  0  0  0  0  0  0
    4.5650   -3.1660   25.2740 O   0  0  0  0  0  0  0  0  0  0  0  0
    6.5290   -3.1470   26.5380 N   0  0  0  0  0  0  0  0  0  0  0  0
    6.0160   -3.5270   27.8290 C   0  0  0  0  0  0  0  0  0  0  0  0
    6.0500   -5.0360   28.0470 C   0  0  1  0  0  0  0  0  0  0  0  0
    5.0950   -5.2150   29.0750 O   0  0  0  0  0  0  0  0  0  0  0  0
    5.8670   -5.9040   26.9990 C   0  0  0  0  0  0  0  0  0  0  0  0
    4.6910   -6.5890   26.7950 C   0  0  0  0  0  0  0  0  0  0  0  0
    4.1680   -6.9080   25.5730 C   0  0  0  0  0  0  0  0  0  0  0  0
    2.9910   -7.5970   25.4340 C   0  0  0  0  0  0  0  0  0  0  0  0
    1.9460   -8.1950   26.3910 C   0  0  0  0  0  0  0  0  0  0  0  0
    2.6700   -7.7580   27.6840 C   0  0  0  0  0  0  0  0  0  0  0  0
    3.9560   -7.0080   27.8280 C   0  0  0  0  0  0  0  0  0  0  0  0
    5.6630   -4.7670   23.3520 C   0  0  0  0  0  0  0  0  0  0  0  0
    6.4870   -5.3300   22.3680 C   0  0  0  0  0  0  0  0  0  0  0  0
  1  2  1  0
  2  3  2  0
  2  4  1  0
  4  5  1  0
  5  6  1  0
  6  7  1  0
  7  8  1  0
  8  9  2  0
  8 10  1  0
 10 11  1  0
 11 12  1  0
 12 13  1  1
 12 14  1  0
 14 15  1  0
 15 16  2  0
 16 17  1  0
 17 18  2  0
 18 19  1  0
 15 20  1  0
 19 20  2  0
  7 21  1  0
  4 22  1  0
 21 22  1  0
M  END
