piperidine-amides-34235-covalent
     RDKit          3D

 26 27  0  0  0  0  0  0  0  0999 V2000
    7.1050   -3.3530   19.3240 C   0  0  0  0  0  0  0  0  0  0  0  0
    6.4060   -4.1730   20.3200 C   0  0  0  0  0  0  0  0  0  0  0  0
    5.3840   -4.8170   19.9840 O   0  0  0  0  0  0  0  0  0  0  0  0
    6.9060   -4.2900   21.6270 N   0  0  0  0  0  0  0  0  0  0  0  0
    7.7280   -3.2370   22.1840 C   0  0  0  0  0  0  0  0  0  0  0  0
    6.9140   -2.5900   23.3080 C   0  0  0  0  0  0  0  0  0  0  0  0
    6.5810   -3.6710   24.3140 C   0  0  0  0  0  0  0  0  0  0  0  0
    5.8230   -3.0660   25.4460 C   0  0  0  0  0  0  0  0  0  0  0  0
    4.6030   -2.8390   25.2650 O   0  0  0  0  0  0  0  0  0  0  0  0
    6.4600   -2.7570   26.6900 N   0  0  0  0  0  0  0  0  0  0  0  0
    6.2890   -3.6380   27.8080 C   0  0  0  0  0  0  0  0  0  0  0  0
    7.6320   -4.1860   28.1560 C   0  0  0  0  0  0  0  0  0  0  0  0
    7.9070   -4.9270   26.9940 N   0  0  0  0  0  0  0  0  0  0  0  0
    6.8190   -5.4810   26.2200 C   0  0  0  0  0  0  0  0  0  0  0  0
    6.0520   -6.2330   27.0840 C   0  0  0  0  0  0  0  0  0  0  0  0
    8.8330   -5.8420   27.3600 C   0  0  0  0  0  0  0  0  0  0  0  0
    9.5020   -6.1960   26.2360 C   0  0  0  0  0  0  0  0  0  0  0  0
    6.4080   -1.3930   27.1910 C   0  0  0  0  0  0  0  0  0  0  0  0
    6.9670   -1.2270   28.5610 C   0  0  0  0  0  0  0  0  0  0  0  0
    7.0550    0.0200   29.3920 C   0  0  0  0  0  0  0  0  0  0  0  0
    6.4320    0.9770   28.4260 C   0  0  0  0  0  0  0  0  0  0  0  0
    5.8960    0.8450   27.1150 C   0  0  0  0  0  0  0  0  0  0  0  0
    5.1780    2.3490   26.1950 Br  0  0  0  0  0  0  0  0  0  0  0  0
    5.9000   -0.3680   26.5200 C   0  0  0  0  0  0  0  0  0  0  0  0
    5.7250   -4.7690   23.6710 C   0  0  0  0  0  0  0  0  0  0  0  0
    6.4400   -5.3500   22.4690 C   0  0  0  0  0  0  0  0  0  0  0  0
  1  2  1  0
  2  3  2  0
  2  4  1  0
  4  5  1  0
  5  6  1  0
  6  7  1  0
  7  8  1  0
  8  9  2  0
  8 10  1  0
 10 11  1  0
 11 12  1  0
 12 13  1  0
 13 14  1  0
 14 15  1  0
 13 16  1  0
 16 17  1  0
 10 18  1  0
 18 19  2  0
 19 20  1  0
 20 21  2  0
 21 22  1  0
 22 23  1  0
 18 24  1  0
 22 24  2  0
  7 25  1  0
  4 26  1  0
 25 26  1  0
M  END
