piperidine-amides-14207-covalent
     RDKit          3D

 24 26  0  0  0  0  0  0  0  0999 V2000
    7.1590   -3.2170   19.1720 C   0  0  0  0  0  0  0  0  0  0  0  0
    6.3600   -3.9490   20.1890 C   0  0  0  0  0  0  0  0  0  0  0  0
    5.2830   -4.4730   19.8540 O   0  0  0  0  0  0  0  0  0  0  0  0
    6.8560   -4.0820   21.4970 N   0  0  0  0  0  0  0  0  0  0  0  0
    6.3010   -5.0630   22.3600 C   0  0  0  0  0  0  0  0  0  0  0  0
    5.2710   -4.3110   23.2210 C   0  0  0  0  0  0  0  0  0  0  0  0
    5.8710   -3.0490   23.7990 C   0  0  0  0  0  0  0  0  0  0  0  0
    5.2690   -2.7250   25.1300 C   0  0  0  0  0  0  0  0  0  0  0  0
    4.0470   -2.5590   25.1140 O   0  0  0  0  0  0  0  0  0  0  0  0
    6.0100   -2.6400   26.3200 N   0  0  0  0  0  0  0  0  0  0  0  0
    6.3510   -3.7790   27.0650 C   0  0  1  0  0  0  0  0  0  0  0  0
    6.8910   -4.7470   26.3090 C   0  0  0  0  0  0  0  0  0  0  0  0
    6.0550   -5.3550   25.4010 C   0  0  0  0  0  0  0  0  0  0  0  0
    6.4800   -6.3210   24.5640 C   0  0  0  0  0  0  0  0  0  0  0  0
    7.8810   -6.7760   24.5860 C   0  0  0  0  0  0  0  0  0  0  0  0
    8.1020   -7.6990   23.7080 O   0  0  0  0  0  0  0  0  0  0  0  0
    7.1330   -8.3340   23.0700 C   0  0  0  0  0  0  0  0  0  0  0  0
    8.6960   -6.1530   25.5280 N   0  0  0  0  0  0  0  0  0  0  0  0
    8.1790   -5.1580   26.3560 C   0  0  0  0  0  0  0  0  0  0  0  0
    7.0890   -3.6000   28.1890 C   0  0  0  0  0  0  0  0  0  0  0  0
    8.2770   -4.1840   28.3130 C   0  0  0  0  0  0  0  0  0  0  0  0
    7.9940   -2.5710   28.1360 C   0  0  0  0  0  0  0  0  0  0  0  0
    7.3390   -3.0840   23.6570 C   0  0  0  0  0  0  0  0  0  0  0  0
    7.6040   -3.0340   22.1340 C   0  0  0  0  0  0  0  0  0  0  0  0
  1  2  1  0
  2  3  2  0
  2  4  1  0
  4  5  1  0
  5  6  1  0
  6  7  1  0
  7  8  1  0
  8  9  2  0
  8 10  1  0
 11 10  1  6
 11 12  1  0
 12 13  2  0
 13 14  1  0
 14 15  2  0
 15 16  1  0
 16 17  1  0
 15 18  1  0
 12 19  1  0
 18 19  2  0
 11 20  1  0
 20 21  1  0
 20 22  1  0
 21 22  1  0
  7 23  1  0
  4 24  1  0
 23 24  1  0
M  END
