piperidine-amides-29260-covalent
     RDKit          3D

 26 27  0  0  0  0  0  0  0  0999 V2000
    7.0740   -3.3040   19.2480 C   0  0  0  0  0  0  0  0  0  0  0  0
    6.3910   -4.1030   20.2600 C   0  0  0  0  0  0  0  0  0  0  0  0
    5.3410   -4.6880   19.9380 O   0  0  0  0  0  0  0  0  0  0  0  0
    6.9530   -4.2450   21.5570 N   0  0  0  0  0  0  0  0  0  0  0  0
    6.6640   -5.4310   22.3030 C   0  0  0  0  0  0  0  0  0  0  0  0
    5.8700   -5.0730   23.5280 C   0  0  0  0  0  0  0  0  0  0  0  0
    6.6150   -3.9870   24.2810 C   0  0  0  0  0  0  0  0  0  0  0  0
    5.7650   -3.5410   25.4280 C   0  0  0  0  0  0  0  0  0  0  0  0
    4.6560   -3.1100   25.1170 O   0  0  0  0  0  0  0  0  0  0  0  0
    6.2470   -3.6530   26.7340 N   0  0  0  0  0  0  0  0  0  0  0  0
    6.8560   -4.8730   27.1600 C   0  0  0  0  0  0  0  0  0  0  0  0
    5.5990   -2.8710   27.7430 C   0  0  0  0  0  0  0  0  0  0  0  0
    6.4730   -2.2550   28.6070 C   0  0  0  0  0  0  0  0  0  0  0  0
    5.7670   -1.4350   29.5390 N   0  0  0  0  0  0  0  0  0  0  0  0
    6.1530   -0.0820   29.4240 C   0  0  0  0  0  0  0  0  0  0  0  0
    6.8960    0.3720   28.3390 O   0  0  0  0  0  0  0  0  0  0  0  0
    5.8280    0.7430   30.3090 O   0  0  0  0  0  0  0  0  0  0  0  0
    6.4790    2.0050   30.2870 C   0  0  0  0  0  0  0  0  0  0  0  0
    6.0590    2.7900   31.5480 C   0  0  0  0  0  0  0  0  0  0  0  0
    6.3510    2.5970   29.0440 C   0  0  0  0  0  0  0  0  0  0  0  0
    7.9100    1.7300   30.5360 C   0  0  0  0  0  0  0  0  0  0  0  0
    4.3750   -3.4260   28.2930 C   0  0  0  0  0  0  0  0  0  0  0  0
    3.7470   -2.2860   27.7560 C   0  0  0  0  0  0  0  0  0  0  0  0
    4.8080   -1.7020   27.2540 C   0  0  0  0  0  0  0  0  0  0  0  0
    6.8850   -2.7940   23.4200 C   0  0  0  0  0  0  0  0  0  0  0  0
    7.6540   -3.1640   22.1930 C   0  0  0  0  0  0  0  0  0  0  0  0
  1  2  1  0
  2  3  2  0
  2  4  1  0
  4  5  1  0
  5  6  1  0
  6  7  1  0
  7  8  1  0
  8  9  2  0
  8 10  1  0
 10 11  1  0
 12 10  1  0
 12 13  1  0
 13 14  1  0
 14 15  1  0
 15 16  2  0
 15 17  1  0
 18 17  1  0
 18 19  1  0
 18 20  1  0
 18 21  1  0
 12 22  1  0
 22 23  1  0
 12 24  1  0
 23 24  1  0
  7 25  1  0
  4 26  1  0
 25 26  1  0
M  END
