piperidine-amides-19875-covalent
     RDKit          3D

 22 24  0  0  0  0  0  0  0  0999 V2000
    6.9790   -3.3820   19.4430 C   0  0  0  0  0  0  0  0  0  0  0  0
    6.3570   -4.2950   20.4430 C   0  0  0  0  0  0  0  0  0  0  0  0
    5.4360   -4.9950   20.0170 O   0  0  0  0  0  0  0  0  0  0  0  0
    6.8260   -4.3620   21.7730 N   0  0  0  0  0  0  0  0  0  0  0  0
    6.6480   -5.5620   22.5710 C   0  0  0  0  0  0  0  0  0  0  0  0
    6.0660   -5.2270   23.9340 C   0  0  0  0  0  0  0  0  0  0  0  0
    6.0530   -3.7110   24.0970 C   0  0  0  0  0  0  0  0  0  0  0  0
    5.4440   -3.2290   25.3850 C   0  0  0  0  0  0  0  0  0  0  0  0
    4.7780   -2.1960   25.3040 O   0  0  0  0  0  0  0  0  0  0  0  0
    5.5080   -3.8150   26.6870 N   0  0  0  0  0  0  0  0  0  0  0  0
    4.2580   -3.7980   27.3900 C   0  0  0  0  0  0  0  0  0  0  0  0
    4.6180   -4.1400   28.8200 C   0  0  0  0  0  0  0  0  0  0  0  0
    5.6000   -5.0370   29.0270 C   0  0  0  0  0  0  0  0  0  0  0  0
    6.6910   -4.6970   28.3680 C   0  0  0  0  0  0  0  0  0  0  0  0
    6.4130   -3.5150   27.6940 C   0  0  0  0  0  0  0  0  0  0  0  0
    5.0780   -6.3220   28.4650 C   0  0  0  0  0  0  0  0  0  0  0  0
    4.3700   -6.8530   29.6130 C   0  0  0  0  0  0  0  0  0  0  0  0
    3.2710   -7.8350   29.3850 C   0  0  0  0  0  0  0  0  0  0  0  0
    4.9340   -6.2410   30.7690 N   0  0  0  0  0  0  0  0  0  0  0  0
    5.8850   -5.4370   30.2250 O   0  0  0  0  0  0  0  0  0  0  0  0
    7.3150   -3.0610   23.7070 C   0  0  0  0  0  0  0  0  0  0  0  0
    7.6800   -3.3030   22.2790 C   0  0  0  0  0  0  0  0  0  0  0  0
  1  2  1  0
  2  3  2  0
  2  4  1  0
  4  5  1  0
  5  6  1  0
  6  7  1  0
  7  8  1  0
  8  9  2  0
  8 10  1  0
 10 11  1  0
 11 12  1  0
 12 13  1  0
 13 14  1  0
 10 15  1  0
 14 15  1  0
 13 16  1  0
 16 17  1  0
 17 18  1  0
 17 19  2  0
 13 20  1  0
 19 20  1  0
  7 21  1  0
  4 22  1  0
 21 22  1  0
M  END
