piperidine-amides-34868-covalent
     RDKit          3D

 32 35  0  0  0  0  0  0  0  0999 V2000
    7.1480   -3.3120   19.2450 C   0  0  0  0  0  0  0  0  0  0  0  0
    6.4540   -4.1450   20.2550 C   0  0  0  0  0  0  0  0  0  0  0  0
    5.3860   -4.6630   19.9350 O   0  0  0  0  0  0  0  0  0  0  0  0
    7.0640   -4.3640   21.4860 N   0  0  0  0  0  0  0  0  0  0  0  0
    6.8360   -5.5950   22.2060 C   0  0  0  0  0  0  0  0  0  0  0  0
    6.1210   -5.2550   23.4640 C   0  0  0  0  0  0  0  0  0  0  0  0
    6.0760   -3.7370   23.5200 C   0  0  0  0  0  0  0  0  0  0  0  0
    5.4740   -3.3680   24.7730 C   0  0  0  0  0  0  0  0  0  0  0  0
    4.7560   -2.3710   24.8610 O   0  0  0  0  0  0  0  0  0  0  0  0
    5.6990   -4.1520   25.8670 N   0  0  0  0  0  0  0  0  0  0  0  0
    6.0920   -3.5610   26.9110 C   0  0  0  0  0  0  0  0  0  0  0  0
    6.2560   -2.1150   26.9470 C   0  0  0  0  0  0  0  0  0  0  0  0
    6.5910   -1.6300   28.1550 C   0  0  0  0  0  0  0  0  0  0  0  0
    6.7310   -2.5340   29.2130 C   0  0  0  0  0  0  0  0  0  0  0  0
    6.6310   -3.9800   29.3590 C   0  0  0  0  0  0  0  0  0  0  0  0
    6.2960   -4.1840   27.9840 C   0  0  0  0  0  0  0  0  0  0  0  0
    6.2910   -2.9120   27.9910 N   0  0  0  0  0  0  0  0  0  0  0  0
    4.8770   -2.7000   27.7050 C   0  0  0  0  0  0  0  0  0  0  0  0
    5.3100   -1.6260   28.4270 O   0  0  0  0  0  0  0  0  0  0  0  0
    4.7040   -4.0640   26.9010 C   0  0  0  0  0  0  0  0  0  0  0  0
    3.3010   -4.2960   26.7800 C   0  0  0  0  0  0  0  0  0  0  0  0
    2.9520   -5.2110   27.6720 N   0  0  0  0  0  0  0  0  0  0  0  0
    1.6510   -5.1770   28.3060 C   0  0  0  0  0  0  0  0  0  0  0  0
    0.9860   -4.1240   28.4460 O   0  0  0  0  0  0  0  0  0  0  0  0
    1.0510   -6.3290   28.8060 O   0  0  0  0  0  0  0  0  0  0  0  0
   -0.3180   -6.6140   28.6000 C   0  0  0  0  0  0  0  0  0  0  0  0
   -1.1800   -5.7750   29.4790 C   0  0  0  0  0  0  0  0  0  0  0  0
   -0.5060   -6.5270   27.2220 C   0  0  0  0  0  0  0  0  0  0  0  0
   -0.5860   -8.0530   28.9550 C   0  0  0  0  0  0  0  0  0  0  0  0
    4.4340   -5.1890   27.9530 C   0  0  0  0  0  0  0  0  0  0  0  0
    7.4470   -3.0840   23.4680 C   0  0  0  0  0  0  0  0  0  0  0  0
    7.8730   -3.2810   22.0380 C   0  0  0  0  0  0  0  0  0  0  0  0
  1  2  1  0
  2  3  2  0
  2  4  1  0
  4  5  1  0
  5  6  1  0
  6  7  1  0
  7  8  1  0
  8  9  2  0
  8 10  1  0
 10 11  1  0
 11 12  2  0
 12 13  1  0
 13 14  2  0
 14 15  1  0
 11 16  1  0
 15 16  2  0
 16 17  1  0
 17 18  1  0
 18 19  2  0
 10 20  1  0
 20 18  1  0
 20 21  1  0
 21 22  1  0
 22 23  1  0
 23 24  2  0
 23 25  1  0
 26 25  1  0
 26 27  1  0
 26 28  1  0
 26 29  1  0
 20 30  1  0
 22 30  1  0
  7 31  1  0
  4 32  1  0
 31 32  1  0
M  END
