piperidine-amides-18791-covalent
     RDKit          3D

 21 21  0  0  0  0  0  0  0  0999 V2000
    7.2050   -3.3050   19.3490 C   0  0  0  0  0  0  0  0  0  0  0  0
    6.4030   -4.0260   20.3070 C   0  0  0  0  0  0  0  0  0  0  0  0
    5.3410   -4.6090   19.9120 O   0  0  0  0  0  0  0  0  0  0  0  0
    6.8110   -4.1230   21.6460 N   0  0  0  0  0  0  0  0  0  0  0  0
    6.5540   -5.4030   22.3410 C   0  0  0  0  0  0  0  0  0  0  0  0
    5.7170   -4.8500   23.5510 C   0  0  0  0  0  0  0  0  0  0  0  0
    6.6120   -3.8580   24.2710 C   0  0  0  0  0  0  0  0  0  0  0  0
    5.9880   -3.6530   25.7130 C   0  0  0  0  0  0  0  0  0  0  0  0
    4.8290   -4.0550   25.7350 O   0  0  0  0  0  0  0  0  0  0  0  0
    6.8470   -3.0970   26.4810 N   0  0  0  0  0  0  0  0  0  0  0  0
    7.5210   -2.0980   27.1100 C   0  0  0  0  0  0  0  0  0  0  0  0
    7.5840   -1.6320   28.3960 C   0  0  0  0  0  0  0  0  0  0  0  0
    8.8010   -1.4190   29.0290 O   0  0  0  0  0  0  0  0  0  0  0  0
    6.2810   -1.4000   29.0070 N   0  0  0  0  0  0  0  0  0  0  0  0
    6.1500   -0.8260   30.2070 C   0  0  0  0  0  0  0  0  0  0  0  0
    5.5750   -2.5930   28.9950 C   0  0  0  0  0  0  0  0  0  0  0  0
    7.5140   -4.0520   27.3640 C   0  0  0  0  0  0  0  0  0  0  0  0
    6.9860   -5.3520   27.3740 C   0  0  0  0  0  0  0  0  0  0  0  0
    8.4170   -5.0730   26.6850 C   0  0  0  0  0  0  0  0  0  0  0  0
    7.0540   -2.7020   23.5360 C   0  0  0  0  0  0  0  0  0  0  0  0
    7.7360   -3.2490   22.2520 C   0  0  0  0  0  0  0  0  0  0  0  0
  1  2  1  0
  2  3  2  0
  2  4  1  0
  4  5  1  0
  5  6  1  0
  6  7  1  0
  7  8  1  0
  8  9  2  0
  8 10  1  0
 10 11  1  0
 11 12  1  0
 12 13  2  0
 12 14  1  0
 14 15  1  0
 14 16  1  0
 10 17  1  0
 17 18  1  0
 17 19  1  0
  7 20  1  0
  4 21  1  0
 20 21  1  0
M  END
