piperidine-amides-2011-covalent
     RDKit          3D

 27 29  0  0  0  0  0  0  0  0999 V2000
    7.0160   -3.3420   19.3240 C   0  0  0  0  0  0  0  0  0  0  0  0
    6.3660   -4.1980   20.3540 C   0  0  0  0  0  0  0  0  0  0  0  0
    5.3930   -4.8560   19.9840 O   0  0  0  0  0  0  0  0  0  0  0  0
    6.8760   -4.2670   21.6580 N   0  0  0  0  0  0  0  0  0  0  0  0
    7.7430   -3.2410   22.2110 C   0  0  0  0  0  0  0  0  0  0  0  0
    7.3740   -2.9240   23.6320 C   0  0  0  0  0  0  0  0  0  0  0  0
    6.0610   -3.6200   23.9760 C   0  0  0  0  0  0  0  0  0  0  0  0
    5.6680   -3.2320   25.3480 C   0  0  0  0  0  0  0  0  0  0  0  0
    4.5230   -3.4990   25.7340 O   0  0  0  0  0  0  0  0  0  0  0  0
    6.5580   -2.5580   26.2080 N   0  0  0  0  0  0  0  0  0  0  0  0
    6.0190   -1.6630   27.2200 C   0  0  1  0  0  0  0  0  0  0  0  0
    7.0900   -1.5630   28.2980 C   0  0  0  0  0  0  0  0  0  0  0  0
    6.9470   -0.9180   29.4900 C   0  0  0  0  0  0  0  0  0  0  0  0
    5.1790   -0.3810   29.4680 S   0  0  0  0  0  0  0  0  0  0  0  0
    4.0960   -1.4050   29.5090 O   0  0  0  0  0  0  0  0  0  0  0  0
    5.0210    0.6150   30.5820 O   0  0  0  0  0  0  0  0  0  0  0  0
    5.1200    0.4020   27.8400 C   0  0  1  0  0  0  0  0  0  0  0  0
    5.7390   -0.2430   26.7820 C   0  0  0  0  0  0  0  0  0  0  0  0
    6.3930    0.7970   27.3200 C   0  0  0  0  0  0  0  0  0  0  0  0
    6.1370    2.1880   27.4110 C   0  0  1  0  0  0  0  0  0  0  0  0
    6.3920    2.6940   26.0090 C   0  0  0  0  0  0  0  0  0  0  0  0
    6.0010    1.9570   24.8980 O   0  0  0  0  0  0  0  0  0  0  0  0
    7.0130    3.9130   25.8150 O   0  0  0  0  0  0  0  0  0  0  0  0
    6.5360    5.0780   26.4770 C   0  0  0  0  0  0  0  0  0  0  0  0
    4.8850    1.9960   27.9050 C   0  0  0  0  0  0  0  0  0  0  0  0
    6.0370   -5.0780   23.7220 C   0  0  0  0  0  0  0  0  0  0  0  0
    6.6830   -5.4730   22.4430 C   0  0  0  0  0  0  0  0  0  0  0  0
  1  2  1  0
  2  3  2  0
  2  4  1  0
  4  5  1  0
  5  6  1  0
  6  7  1  0
  7  8  1  0
  8  9  2  0
  8 10  1  0
 11 10  1  6
 11 12  1  0
 12 13  1  0
 14 13  1  0
 14 15  2  0
 14 16  2  0
 14 17  1  0
 11 18  1  0
 17 18  1  6
 17 19  1  0
 19 20  1  0
 20 21  1  6
 21 22  2  0
 21 23  1  0
 23 24  1  0
 17 25  1  0
 20 25  1  0
  7 26  1  0
  4 27  1  0
 26 27  1  0
M  END
