piperidine-amides-3442-covalent
     RDKit          3D

 21 22  0  0  0  0  0  0  0  0999 V2000
    7.0780   -3.3450   19.3580 C   0  0  0  0  0  0  0  0  0  0  0  0
    6.3280   -4.1450   20.3170 C   0  0  0  0  0  0  0  0  0  0  0  0
    5.3340   -4.7740   19.9590 O   0  0  0  0  0  0  0  0  0  0  0  0
    6.7850   -4.2270   21.6740 N   0  0  0  0  0  0  0  0  0  0  0  0
    6.6070   -5.4390   22.4450 C   0  0  0  0  0  0  0  0  0  0  0  0
    6.0230   -5.1000   23.7910 C   0  0  0  0  0  0  0  0  0  0  0  0
    6.1620   -3.5970   23.9600 C   0  0  0  0  0  0  0  0  0  0  0  0
    5.8300   -3.1480   25.3410 C   0  0  0  0  0  0  0  0  0  0  0  0
    4.7250   -3.3650   25.8760 O   0  0  0  0  0  0  0  0  0  0  0  0
    6.8360   -2.4310   26.0300 N   0  0  0  0  0  0  0  0  0  0  0  0
    6.4560   -1.3940   26.9600 C   0  0  0  0  0  0  0  0  0  0  0  0
    5.6500   -0.2630   26.4560 C   0  0  0  0  0  0  0  0  0  0  0  0
    5.2190    0.7550   27.1380 N   0  0  0  0  0  0  0  0  0  0  0  0
    5.5900    0.6900   28.4110 C   0  0  0  0  0  0  0  0  0  0  0  0
    5.2200    1.6980   29.3090 C   0  0  0  0  0  0  0  0  0  0  0  0
    3.8600    2.0300   29.1930 O   0  0  0  0  0  0  0  0  0  0  0  0
    2.8830    1.0120   29.0850 C   0  0  0  0  0  0  0  0  0  0  0  0
    6.3350   -0.4030   28.7580 N   0  0  0  0  0  0  0  0  0  0  0  0
    6.9800   -1.6490   28.3720 C   0  0  0  0  0  0  0  0  0  0  0  0
    7.5250   -3.0780   23.5960 C   0  0  0  0  0  0  0  0  0  0  0  0
    7.6670   -3.1960   22.2340 C   0  0  0  0  0  0  0  0  0  0  0  0
  1  2  1  0
  2  3  2  0
  2  4  1  0
  4  5  1  0
  5  6  1  0
  6  7  1  0
  7  8  1  0
  8  9  2  0
  8 10  1  0
 10 11  1  0
 11 12  2  0
 12 13  1  0
 13 14  2  0
 14 15  1  0
 15 16  1  0
 16 17  1  0
 14 18  1  0
 11 19  1  0
 18 19  2  0
  7 20  1  0
  4 21  1  0
 20 21  1  0
M  END
