piperidine-amides-15201-covalent
     RDKit          3D

 20 20  0  0  0  0  0  0  0  0999 V2000
    7.1080   -3.2990   19.3480 C   0  0  0  0  0  0  0  0  0  0  0  0
    6.3270   -4.0780   20.3180 C   0  0  0  0  0  0  0  0  0  0  0  0
    5.3160   -4.7110   19.9420 O   0  0  0  0  0  0  0  0  0  0  0  0
    6.7280   -4.1550   21.6610 N   0  0  0  0  0  0  0  0  0  0  0  0
    7.6130   -3.1320   22.2020 C   0  0  0  0  0  0  0  0  0  0  0  0
    7.4470   -3.0890   23.7320 C   0  0  0  0  0  0  0  0  0  0  0  0
    6.0550   -3.5930   24.0180 C   0  0  0  0  0  0  0  0  0  0  0  0
    5.5640   -3.2580   25.3800 C   0  0  0  0  0  0  0  0  0  0  0  0
    4.5920   -2.4810   25.4550 O   0  0  0  0  0  0  0  0  0  0  0  0
    6.1550   -3.7890   26.5600 N   0  0  0  0  0  0  0  0  0  0  0  0
    5.9220   -5.1670   26.9360 C   0  0  2  0  0  0  0  0  0  0  0  0
    4.4680   -5.4460   26.8340 C   0  0  0  0  0  0  0  0  0  0  0  0
    6.4050   -5.4560   28.3090 C   0  0  0  0  0  0  0  0  0  0  0  0
    5.5680   -5.7680   29.3460 C   0  0  0  0  0  0  0  0  0  0  0  0
    4.7030   -6.8600   29.3090 C   0  0  0  0  0  0  0  0  0  0  0  0
    4.3150   -7.3820   28.1220 O   0  0  0  0  0  0  0  0  0  0  0  0
    4.2400   -7.4100   30.4910 O   0  0  0  0  0  0  0  0  0  0  0  0
    5.0970   -7.5920   31.6130 C   0  0  0  0  0  0  0  0  0  0  0  0
    6.0890   -5.1020   23.8030 C   0  0  0  0  0  0  0  0  0  0  0  0
    6.6000   -5.3870   22.4140 C   0  0  0  0  0  0  0  0  0  0  0  0
  1  2  1  0
  2  3  2  0
  2  4  1  0
  4  5  1  0
  5  6  1  0
  6  7  1  0
  7  8  1  0
  8  9  2  0
  8 10  1  0
 10 11  1  0
 11 12  1  1
 11 13  1  0
 13 14  1  0
 14 15  1  0
 15 16  2  0
 15 17  1  0
 17 18  1  0
  7 19  1  0
  4 20  1  0
 19 20  1  0
M  END
