piperidine-amides-29326-covalent
     RDKit          3D

 27 29  0  0  0  0  0  0  0  0999 V2000
    7.0310   -3.3310   19.3630 C   0  0  0  0  0  0  0  0  0  0  0  0
    6.3600   -4.1780   20.3490 C   0  0  0  0  0  0  0  0  0  0  0  0
    5.3640   -4.8280   19.9750 O   0  0  0  0  0  0  0  0  0  0  0  0
    6.8380   -4.2890   21.6850 N   0  0  0  0  0  0  0  0  0  0  0  0
    7.6510   -3.2260   22.2300 C   0  0  0  0  0  0  0  0  0  0  0  0
    7.5080   -3.1550   23.7240 C   0  0  0  0  0  0  0  0  0  0  0  0
    6.1430   -3.7170   24.0260 C   0  0  0  0  0  0  0  0  0  0  0  0
    5.5380   -3.2850   25.3370 C   0  0  0  0  0  0  0  0  0  0  0  0
    4.3140   -3.1960   25.3120 O   0  0  0  0  0  0  0  0  0  0  0  0
    6.2990   -2.9920   26.4750 N   0  0  0  0  0  0  0  0  0  0  0  0
    6.2710   -3.9360   27.5470 C   0  0  0  0  0  0  0  0  0  0  0  0
    6.2650   -1.6230   26.9030 C   0  0  0  0  0  0  0  0  0  0  0  0
    6.6480   -1.1760   28.2330 N   0  0  0  0  0  0  0  0  0  0  0  0
    6.6100    0.1430   28.6660 C   0  0  0  0  0  0  0  0  0  0  0  0
    6.1660    1.0260   27.7010 C   0  0  0  0  0  0  0  0  0  0  0  0
    6.1360    2.3430   28.1550 O   0  0  0  0  0  0  0  0  0  0  0  0
    6.4040    3.2780   27.1850 C   0  0  0  0  0  0  0  0  0  0  0  0
    5.4750    4.4770   26.8930 C   0  0  0  0  0  0  0  0  0  0  0  0
    5.9960    5.5410   25.9930 C   0  0  0  0  0  0  0  0  0  0  0  0
    5.1110    6.7280   25.6920 C   0  0  0  0  0  0  0  0  0  0  0  0
    3.7280    6.6750   26.3880 C   0  0  0  0  0  0  0  0  0  0  0  0
    3.4050    5.6110   27.1900 C   0  0  0  0  0  0  0  0  0  0  0  0
    4.2130    4.5380   27.4590 C   0  0  0  0  0  0  0  0  0  0  0  0
    5.8080    0.5730   26.4440 C   0  0  0  0  0  0  0  0  0  0  0  0
    5.8620   -0.5700   26.1390 N   0  0  0  0  0  0  0  0  0  0  0  0
    6.2030   -5.2380   23.8560 C   0  0  0  0  0  0  0  0  0  0  0  0
    6.6620   -5.5060   22.4300 C   0  0  0  0  0  0  0  0  0  0  0  0
  1  2  1  0
  2  3  2  0
  2  4  1  0
  4  5  1  0
  5  6  1  0
  6  7  1  0
  7  8  1  0
  8  9  2  0
  8 10  1  0
 10 11  1  0
 10 12  1  0
 12 13  2  0
 13 14  1  0
 14 15  2  0
 15 16  1  0
 16 17  1  0
 17 18  1  0
 18 19  2  0
 19 20  1  0
 20 21  2  0
 21 22  1  0
 18 23  1  0
 22 23  2  0
 15 24  1  0
 12 25  1  0
 24 25  2  0
  7 26  1  0
  4 27  1  0
 26 27  1  0
M  END
