piperidine-amides-14457-covalent
     RDKit          3D

 23 25  0  0  0  0  0  0  0  0999 V2000
    7.0510   -3.3400   19.3100 C   0  0  0  0  0  0  0  0  0  0  0  0
    6.3960   -4.1840   20.3090 C   0  0  0  0  0  0  0  0  0  0  0  0
    5.3700   -4.7980   19.9690 O   0  0  0  0  0  0  0  0  0  0  0  0
    6.9520   -4.3300   21.6050 N   0  0  0  0  0  0  0  0  0  0  0  0
    7.6900   -3.2460   22.1920 C   0  0  0  0  0  0  0  0  0  0  0  0
    6.9300   -2.7100   23.3590 C   0  0  0  0  0  0  0  0  0  0  0  0
    6.5890   -3.9090   24.2090 C   0  0  0  0  0  0  0  0  0  0  0  0
    5.6990   -3.4900   25.3370 C   0  0  0  0  0  0  0  0  0  0  0  0
    4.4910   -3.5890   25.1380 O   0  0  0  0  0  0  0  0  0  0  0  0
    6.2640   -3.0090   26.5120 N   0  0  0  0  0  0  0  0  0  0  0  0
    5.6920   -1.8630   27.1350 C   0  0  0  0  0  0  0  0  0  0  0  0
    4.3960   -1.7580   27.6560 C   0  0  0  0  0  0  0  0  0  0  0  0
    3.3830   -1.2120   26.8860 C   0  0  0  0  0  0  0  0  0  0  0  0
    2.0550   -1.0440   27.2820 C   0  0  0  0  0  0  0  0  0  0  0  0
    1.7360   -1.5080   28.6710 C   0  0  0  0  0  0  0  0  0  0  0  0
    0.4520   -1.3550   29.0800 F   0  0  0  0  0  0  0  0  0  0  0  0
    2.8200   -2.1250   29.5730 C   0  0  0  0  0  0  0  0  0  0  0  0
    2.4650   -2.7360   31.3580 Br  0  0  0  0  0  0  0  0  0  0  0  0
    4.1480   -2.1960   28.9300 C   0  0  0  0  0  0  0  0  0  0  0  0
    6.7790   -0.9570   27.8940 C   0  0  0  0  0  0  0  0  0  0  0  0
    6.2610   -0.5370   26.6570 C   0  0  0  0  0  0  0  0  0  0  0  0
    5.7960   -4.9170   23.4020 C   0  0  0  0  0  0  0  0  0  0  0  0
    6.6100   -5.4590   22.4350 C   0  0  0  0  0  0  0  0  0  0  0  0
  1  2  1  0
  2  3  2  0
  2  4  1  0
  4  5  1  0
  5  6  1  0
  6  7  1  0
  7  8  1  0
  8  9  2  0
  8 10  1  0
 11 10  1  0
 11 12  1  0
 12 13  2  0
 13 14  1  0
 14 15  2  0
 15 16  1  0
 15 17  1  0
 17 18  1  0
 12 19  1  0
 17 19  2  0
 11 20  1  0
 11 21  1  0
 20 21  1  0
  7 22  1  0
  4 23  1  0
 22 23  1  0
M  END
