piperidine-amides-2210-covalent
     RDKit          3D

 29 31  0  0  0  0  0  0  0  0999 V2000
    7.1030   -3.2560   19.2040 C   0  0  0  0  0  0  0  0  0  0  0  0
    6.3600   -4.0230   20.2450 C   0  0  0  0  0  0  0  0  0  0  0  0
    5.3190   -4.5790   19.8990 O   0  0  0  0  0  0  0  0  0  0  0  0
    6.8770   -4.1300   21.5380 N   0  0  0  0  0  0  0  0  0  0  0  0
    7.8180   -3.1640   22.0510 C   0  0  0  0  0  0  0  0  0  0  0  0
    7.5290   -2.9210   23.4880 C   0  0  0  0  0  0  0  0  0  0  0  0
    6.1370   -3.4570   23.7910 C   0  0  0  0  0  0  0  0  0  0  0  0
    5.8550   -3.2050   25.2130 C   0  0  0  0  0  0  0  0  0  0  0  0
    4.7060   -3.3690   25.6480 O   0  0  0  0  0  0  0  0  0  0  0  0
    6.8890   -2.7660   26.0630 N   0  0  0  0  0  0  0  0  0  0  0  0
    7.1270   -3.4890   27.2830 C   0  0  0  0  0  0  0  0  0  0  0  0
    6.5940   -2.6340   28.4010 C   0  0  0  0  0  0  0  0  0  0  0  0
    5.4310   -3.0430   29.1000 C   0  0  0  0  0  0  0  0  0  0  0  0
    4.8200   -2.3680   30.1360 C   0  0  0  0  0  0  0  0  0  0  0  0
    5.3700   -1.2150   30.5390 C   0  0  0  0  0  0  0  0  0  0  0  0
    6.5710   -0.6120   29.9590 C   0  0  0  0  0  0  0  0  0  0  0  0
    6.9570    0.6740   30.5980 C   0  0  0  0  0  0  0  0  0  0  0  0
    6.3090    1.0910   31.8150 N   0  0  0  0  0  0  0  0  0  0  0  0
    6.9670    2.3500   32.0750 C   0  0  0  0  0  0  0  0  0  0  0  0
    6.6260    3.1870   33.2650 C   0  0  0  0  0  0  0  0  0  0  0  0
    5.8510    2.4970   34.2050 O   0  0  0  0  0  0  0  0  0  0  0  0
    6.9870    4.3820   33.4210 O   0  0  0  0  0  0  0  0  0  0  0  0
    7.3010    4.8790   34.6930 C   0  0  0  0  0  0  0  0  0  0  0  0
    8.3190    6.0000   34.5380 C   0  0  0  0  0  0  0  0  0  0  0  0
    7.8790    2.5690   31.0760 N   0  0  0  0  0  0  0  0  0  0  0  0
    7.8730    1.5800   30.2080 O   0  0  0  0  0  0  0  0  0  0  0  0
    7.1400   -1.4480   28.8320 C   0  0  0  0  0  0  0  0  0  0  0  0
    6.0270   -4.9590   23.5190 C   0  0  0  0  0  0  0  0  0  0  0  0
    6.6490   -5.3270   22.3370 C   0  0  0  0  0  0  0  0  0  0  0  0
  1  2  1  0
  2  3  2  0
  2  4  1  0
  4  5  1  0
  5  6  1  0
  6  7  1  0
  7  8  1  0
  8  9  2  0
  8 10  1  0
 10 11  1  0
 11 12  1  0
 12 13  2  0
 13 14  1  0
 14 15  2  0
 15 16  1  0
 16 17  1  0
 17 18  2  0
 18 19  1  0
 19 20  1  0
 20 21  2  0
 20 22  1  0
 22 23  1  0
 23 24  1  0
 19 25  2  0
 17 26  1  0
 25 26  1  0
 12 27  1  0
 16 27  2  0
  7 28  1  0
  4 29  1  0
 28 29  1  0
M  END
