piperidine-amides-27808-covalent
     RDKit          3D

 26 28  0  0  0  0  0  0  0  0999 V2000
    6.9840   -3.3900   19.3980 C   0  0  0  0  0  0  0  0  0  0  0  0
    6.3850   -4.2740   20.4280 C   0  0  0  0  0  0  0  0  0  0  0  0
    5.4390   -4.9810   20.0160 O   0  0  0  0  0  0  0  0  0  0  0  0
    6.8720   -4.3450   21.7610 N   0  0  0  0  0  0  0  0  0  0  0  0
    6.5390   -5.4590   22.6080 C   0  0  0  0  0  0  0  0  0  0  0  0
    5.9800   -5.0800   23.9210 C   0  0  0  0  0  0  0  0  0  0  0  0
    6.0370   -3.6240   24.1490 C   0  0  0  0  0  0  0  0  0  0  0  0
    5.2850   -3.1010   25.3570 C   0  0  0  0  0  0  0  0  0  0  0  0
    4.7140   -2.0180   25.1740 O   0  0  0  0  0  0  0  0  0  0  0  0
    5.1270   -3.6980   26.6490 N   0  0  0  0  0  0  0  0  0  0  0  0
    5.9100   -4.7890   27.0720 C   0  0  0  0  0  0  0  0  0  0  0  0
    5.4560   -5.5220   28.2460 C   0  0  1  0  0  0  0  0  0  0  0  0
    6.5000   -5.8470   29.1940 C   0  0  0  0  0  0  0  0  0  0  0  0
    4.6080   -4.8030   29.1170 N   0  0  0  0  0  0  0  0  0  0  0  0
    3.6640   -5.4900   29.9210 C   0  0  0  0  0  0  0  0  0  0  0  0
    4.1420   -6.1050   31.0600 C   0  0  0  0  0  0  0  0  0  0  0  0
    3.6990   -5.6720   32.2750 C   0  0  0  0  0  0  0  0  0  0  0  0
    4.1360   -6.2340   33.4480 C   0  0  0  0  0  0  0  0  0  0  0  0
    5.0430   -7.2640   33.4720 C   0  0  0  0  0  0  0  0  0  0  0  0
    5.5220   -7.7420   32.2610 C   0  0  0  0  0  0  0  0  0  0  0  0
    5.0470   -7.1330   31.0150 C   0  0  0  0  0  0  0  0  0  0  0  0
    4.7460   -3.3810   29.1360 C   0  0  0  0  0  0  0  0  0  0  0  0
    4.9040   -2.7920   27.7470 C   0  0  1  0  0  0  0  0  0  0  0  0
    5.9340   -1.8280   27.6240 C   0  0  0  0  0  0  0  0  0  0  0  0
    7.3440   -3.0750   23.7980 C   0  0  0  0  0  0  0  0  0  0  0  0
    7.7080   -3.2810   22.3570 C   0  0  0  0  0  0  0  0  0  0  0  0
  1  2  1  0
  2  3  2  0
  2  4  1  0
  4  5  1  0
  5  6  1  0
  6  7  1  0
  7  8  1  0
  8  9  2  0
  8 10  1  0
 10 11  1  0
 11 12  1  0
 12 13  1  1
 12 14  1  0
 14 15  1  0
 15 16  1  0
 16 17  2  0
 17 18  1  0
 18 19  2  0
 19 20  1  0
 16 21  1  0
 20 21  2  0
 14 22  1  0
 10 23  1  0
 22 23  1  0
 23 24  1  1
  7 25  1  0
  4 26  1  0
 25 26  1  0
M  END
