piperidine-amides-12130-covalent
     RDKit          3D

 25 27  0  0  0  0  0  0  0  0999 V2000
    7.0910   -3.3220   19.3200 C   0  0  0  0  0  0  0  0  0  0  0  0
    6.3840   -4.1600   20.2800 C   0  0  0  0  0  0  0  0  0  0  0  0
    5.3490   -4.7420   19.9540 O   0  0  0  0  0  0  0  0  0  0  0  0
    6.9320   -4.3590   21.5910 N   0  0  0  0  0  0  0  0  0  0  0  0
    6.4940   -5.4780   22.3830 C   0  0  0  0  0  0  0  0  0  0  0  0
    5.7880   -4.9820   23.6170 C   0  0  0  0  0  0  0  0  0  0  0  0
    6.6050   -3.8320   24.1860 C   0  0  0  0  0  0  0  0  0  0  0  0
    5.9350   -3.2050   25.3530 C   0  0  0  0  0  0  0  0  0  0  0  0
    4.7320   -3.3860   25.6310 O   0  0  0  0  0  0  0  0  0  0  0  0
    6.7290   -2.3540   26.1510 N   0  0  0  0  0  0  0  0  0  0  0  0
    6.1150   -1.6200   27.2260 C   0  0  2  0  0  0  0  0  0  0  0  0
    5.6940   -0.2920   26.7120 C   0  0  0  0  0  0  0  0  0  0  0  0
    5.8910    0.6200   27.7110 C   0  0  0  0  0  0  0  0  0  0  0  0
    6.4750   -0.1140   28.8210 N   0  0  0  0  0  0  0  0  0  0  0  0
    6.1250    0.3140   30.1480 C   0  0  0  0  0  0  0  0  0  0  0  0
    4.9000    0.9370   30.3190 C   0  0  0  0  0  0  0  0  0  0  0  0
    4.5500    1.3650   31.6630 C   0  0  0  0  0  0  0  0  0  0  0  0
    5.3640    1.1820   32.7460 C   0  0  0  0  0  0  0  0  0  0  0  0
    4.8130    1.7530   34.3210 Cl  0  0  0  0  0  0  0  0  0  0  0  0
    6.5770    0.5620   32.5580 C   0  0  0  0  0  0  0  0  0  0  0  0
    7.6330    0.3140   33.9170 Cl  0  0  0  0  0  0  0  0  0  0  0  0
    6.9250    0.1450   31.2700 C   0  0  0  0  0  0  0  0  0  0  0  0
    6.8640   -1.3610   28.3880 C   0  0  0  0  0  0  0  0  0  0  0  0
    6.9180   -2.7640   23.1700 C   0  0  0  0  0  0  0  0  0  0  0  0
    7.7280   -3.3340   22.2120 C   0  0  0  0  0  0  0  0  0  0  0  0
  1  2  1  0
  2  3  2  0
  2  4  1  0
  4  5  1  0
  5  6  1  0
  6  7  1  0
  7  8  1  0
  8  9  2  0
  8 10  1  0
 11 10  1  6
 11 12  1  0
 12 13  1  0
 13 14  1  0
 14 15  1  0
 15 16  2  0
 16 17  1  0
 17 18  2  0
 18 19  1  0
 18 20  1  0
 20 21  1  0
 15 22  1  0
 20 22  2  0
 11 23  1  0
 14 23  1  0
  7 24  1  0
  4 25  1  0
 24 25  1  0
M  END
