piperidine-amides-5083-covalent
     RDKit          3D

 22 23  0  0  0  0  0  0  0  0999 V2000
    7.1460   -3.2440   19.1740 C   0  0  0  0  0  0  0  0  0  0  0  0
    6.3690   -3.9690   20.2090 C   0  0  0  0  0  0  0  0  0  0  0  0
    5.2880   -4.4750   19.8550 O   0  0  0  0  0  0  0  0  0  0  0  0
    6.8630   -4.1130   21.5110 N   0  0  0  0  0  0  0  0  0  0  0  0
    7.7270   -3.1280   22.0490 C   0  0  0  0  0  0  0  0  0  0  0  0
    7.5370   -2.9830   23.4740 C   0  0  0  0  0  0  0  0  0  0  0  0
    6.2080   -3.4380   23.9270 C   0  0  0  0  0  0  0  0  0  0  0  0
    6.1020   -3.2450   25.3860 C   0  0  0  0  0  0  0  0  0  0  0  0
    4.9860   -2.9080   25.8400 O   0  0  0  0  0  0  0  0  0  0  0  0
    7.2280   -3.4260   26.2180 N   0  0  0  0  0  0  0  0  0  0  0  0
    7.3160   -4.5400   27.1910 C   0  0  0  0  0  0  0  0  0  0  0  0
    6.1820   -4.4210   28.1410 C   0  0  2  0  0  0  0  0  0  0  0  0
    6.2970   -3.7430   29.1970 O   0  0  0  0  0  0  0  0  0  0  0  0
    5.3840   -5.5690   28.5190 C   0  0  0  0  0  0  0  0  0  0  0  0
    5.6760   -6.3140   29.6160 C   0  0  0  0  0  0  0  0  0  0  0  0
    4.9780   -7.3940   30.0520 C   0  0  0  0  0  0  0  0  0  0  0  0
    3.8900   -7.7620   29.3260 C   0  0  0  0  0  0  0  0  0  0  0  0
    3.5550   -7.0400   28.2060 C   0  0  0  0  0  0  0  0  0  0  0  0
    2.0140   -7.5860   27.2050 Br  0  0  0  0  0  0  0  0  0  0  0  0
    4.2820   -5.9540   27.7930 C   0  0  0  0  0  0  0  0  0  0  0  0
    5.8680   -4.8640   23.5250 C   0  0  0  0  0  0  0  0  0  0  0  0
    6.6420   -5.2890   22.3220 C   0  0  0  0  0  0  0  0  0  0  0  0
  1  2  1  0
  2  3  2  0
  2  4  1  0
  4  5  1  0
  5  6  1  0
  6  7  1  0
  7  8  1  0
  8  9  2  0
  8 10  1  0
 10 11  1  0
 11 12  1  0
 12 13  1  1
 12 14  1  0
 14 15  2  0
 15 16  1  0
 16 17  2  0
 17 18  1  0
 18 19  1  0
 14 20  1  0
 18 20  2  0
  7 21  1  0
  4 22  1  0
 21 22  1  0
M  END
