piperidine-amides-12781-covalent
     RDKit          3D

 22 23  0  0  0  0  0  0  0  0999 V2000
    7.0720   -3.3160   19.2160 C   0  0  0  0  0  0  0  0  0  0  0  0
    6.3690   -4.1030   20.2560 C   0  0  0  0  0  0  0  0  0  0  0  0
    5.3000   -4.6420   19.9120 O   0  0  0  0  0  0  0  0  0  0  0  0
    6.9090   -4.2790   21.5350 N   0  0  0  0  0  0  0  0  0  0  0  0
    7.6320   -3.2090   22.1430 C   0  0  0  0  0  0  0  0  0  0  0  0
    7.2040   -2.8610   23.4960 C   0  0  0  0  0  0  0  0  0  0  0  0
    6.5220   -3.9320   24.2540 C   0  0  0  0  0  0  0  0  0  0  0  0
    5.7390   -3.3470   25.3680 C   0  0  0  0  0  0  0  0  0  0  0  0
    4.5420   -3.0720   25.1570 O   0  0  0  0  0  0  0  0  0  0  0  0
    6.3010   -3.1090   26.6310 N   0  0  0  0  0  0  0  0  0  0  0  0
    6.3440   -1.7450   27.2150 C   0  0  0  0  0  0  0  0  0  0  0  0
    6.9500   -1.6720   28.5500 C   0  0  0  0  0  0  0  0  0  0  0  0
    7.0660   -0.4270   29.2740 C   0  0  0  0  0  0  0  0  0  0  0  0
    6.5920    0.7440   28.7010 C   0  0  0  0  0  0  0  0  0  0  0  0
    6.6790    1.8270   29.3030 O   0  0  0  0  0  0  0  0  0  0  0  0
    6.2800    1.7360   30.5410 C   0  0  0  0  0  0  0  0  0  0  0  0
    5.9730    0.6690   27.3310 C   0  0  0  0  0  0  0  0  0  0  0  0
    5.5090    1.8180   26.7600 C   0  0  0  0  0  0  0  0  0  0  0  0
    4.0870    1.9140   26.7110 O   0  0  0  0  0  0  0  0  0  0  0  0
    5.8780   -0.5460   26.6580 C   0  0  0  0  0  0  0  0  0  0  0  0
    5.6680   -4.8040   23.3750 C   0  0  0  0  0  0  0  0  0  0  0  0
    6.5680   -5.4040   22.3720 C   0  0  0  0  0  0  0  0  0  0  0  0
  1  2  1  0
  2  3  2  0
  2  4  1  0
  4  5  1  0
  5  6  1  0
  6  7  1  0
  7  8  1  0
  8  9  2  0
  8 10  1  0
 10 11  1  0
 11 12  2  0
 12 13  1  0
 13 14  2  0
 14 15  1  0
 15 16  1  0
 14 17  1  0
 17 18  1  0
 18 19  1  0
 11 20  1  0
 17 20  2  0
  7 21  1  0
  4 22  1  0
 21 22  1  0
M  END
