piperidine-amides-10273-covalent
     RDKit          3D

 25 26  0  0  0  0  0  0  0  0999 V2000
    7.0710   -3.2720   19.2380 C   0  0  0  0  0  0  0  0  0  0  0  0
    6.3500   -4.0270   20.2740 C   0  0  0  0  0  0  0  0  0  0  0  0
    5.2970   -4.6030   19.9020 O   0  0  0  0  0  0  0  0  0  0  0  0
    6.8390   -4.1270   21.5860 N   0  0  0  0  0  0  0  0  0  0  0  0
    6.7000   -5.3440   22.3460 C   0  0  0  0  0  0  0  0  0  0  0  0
    6.0330   -4.9900   23.6410 C   0  0  0  0  0  0  0  0  0  0  0  0
    6.1440   -3.5190   23.9290 C   0  0  0  0  0  0  0  0  0  0  0  0
    5.6710   -3.2120   25.3030 C   0  0  0  0  0  0  0  0  0  0  0  0
    4.4580   -2.9440   25.4480 O   0  0  0  0  0  0  0  0  0  0  0  0
    6.4960   -3.2000   26.4480 N   0  0  0  0  0  0  0  0  0  0  0  0
    6.1950   -3.9860   27.6300 C   0  0  0  0  0  0  0  0  0  0  0  0
    5.8690   -5.4540   27.3380 C   0  0  0  0  0  0  0  0  0  0  0  0
    5.5820   -5.7990   26.1610 O   0  0  0  0  0  0  0  0  0  0  0  0
    4.4970   -6.6490   26.0380 C   0  0  0  0  0  0  0  0  0  0  0  0
    4.1180   -7.0620   24.7590 C   0  0  0  0  0  0  0  0  0  0  0  0
    3.0390   -7.9260   24.5080 C   0  0  0  0  0  0  0  0  0  0  0  0
    2.2500   -8.4490   25.5240 C   0  0  0  0  0  0  0  0  0  0  0  0
    0.8820   -9.5500   25.1920 S   0  0  0  0  0  0  0  0  0  0  0  0
    0.3090   -9.2470   23.4780 C   0  0  0  0  0  0  0  0  0  0  0  0
    1.2300  -10.9900   25.3700 O   0  0  0  0  0  0  0  0  0  0  0  0
   -0.2300   -9.2250   26.1680 O   0  0  0  0  0  0  0  0  0  0  0  0
    2.6240   -8.0240   26.9360 C   0  0  0  0  0  0  0  0  0  0  0  0
    3.7980   -7.0930   27.1220 C   0  0  0  0  0  0  0  0  0  0  0  0
    7.5700   -3.0300   23.6390 C   0  0  0  0  0  0  0  0  0  0  0  0
    7.7100   -3.0730   22.1220 C   0  0  0  0  0  0  0  0  0  0  0  0
  1  2  1  0
  2  3  2  0
  2  4  1  0
  4  5  1  0
  5  6  1  0
  6  7  1  0
  7  8  1  0
  8  9  2  0
  8 10  1  0
 10 11  1  0
 11 12  1  0
 12 13  1  0
 13 14  1  0
 14 15  2  0
 15 16  1  0
 16 17  2  0
 17 18  1  0
 18 19  1  0
 18 20  2  0
 18 21  2  0
 17 22  1  0
 14 23  1  0
 22 23  2  0
  7 24  1  0
  4 25  1  0
 24 25  1  0
M  END
