piperidine-amides-24135-covalent
     RDKit          3D

 25 28  0  0  0  0  0  0  0  0999 V2000
    6.9960   -3.3590   19.4370 C   0  0  0  0  0  0  0  0  0  0  0  0
    6.3480   -4.2460   20.4200 C   0  0  0  0  0  0  0  0  0  0  0  0
    5.4370   -5.0100   20.0210 O   0  0  0  0  0  0  0  0  0  0  0  0
    6.7410   -4.2770   21.7790 N   0  0  0  0  0  0  0  0  0  0  0  0
    6.5130   -5.4920   22.5400 C   0  0  0  0  0  0  0  0  0  0  0  0
    5.8770   -5.1100   23.9000 C   0  0  0  0  0  0  0  0  0  0  0  0
    5.7850   -3.5960   23.9280 C   0  0  0  0  0  0  0  0  0  0  0  0
    4.9940   -2.9860   25.0700 C   0  0  0  0  0  0  0  0  0  0  0  0
    4.1920   -2.1030   24.7470 O   0  0  0  0  0  0  0  0  0  0  0  0
    5.1040   -3.3400   26.4520 N   0  0  0  0  0  0  0  0  0  0  0  0
    6.2770   -3.9980   26.7570 C   0  0  0  0  0  0  0  0  0  0  0  0
    6.0820   -5.0690   27.8150 C   0  0  0  0  0  0  0  0  0  0  0  0
    6.6060   -6.2970   28.1780 C   0  0  0  0  0  0  0  0  0  0  0  0
    6.1050   -7.0330   29.2810 C   0  0  0  0  0  0  0  0  0  0  0  0
    5.0480   -6.5990   30.0980 C   0  0  0  0  0  0  0  0  0  0  0  0
    4.4760   -5.4130   29.8300 C   0  0  0  0  0  0  0  0  0  0  0  0
    5.0360   -4.6870   28.6840 C   0  0  0  0  0  0  0  0  0  0  0  0
    4.1750   -3.5090   28.7500 C   0  0  0  0  0  0  0  0  0  0  0  0
    3.3880   -3.2340   30.0410 C   0  0  0  0  0  0  0  0  0  0  0  0
    2.7050   -1.9660   29.6100 C   0  0  0  0  0  0  0  0  0  0  0  0
    2.7680   -1.2560   28.4020 C   0  0  0  0  0  0  0  0  0  0  0  0
    3.4950   -1.6110   27.3570 C   0  0  0  0  0  0  0  0  0  0  0  0
    4.2710   -2.8370   27.5230 C   0  0  0  0  0  0  0  0  0  0  0  0
    7.1470   -2.9600   23.7800 C   0  0  0  0  0  0  0  0  0  0  0  0
    7.5830   -3.2250   22.3250 C   0  0  0  0  0  0  0  0  0  0  0  0
  1  2  1  0
  2  3  2  0
  2  4  1  0
  4  5  1  0
  5  6  1  0
  6  7  1  0
  7  8  1  0
  8  9  2  0
  8 10  1  0
 10 11  1  0
 11 12  1  0
 12 13  2  0
 13 14  1  0
 14 15  2  0
 15 16  1  0
 12 17  1  0
 16 17  2  0
 17 18  1  0
 18 19  2  0
 19 20  1  0
 20 21  2  0
 21 22  1  0
 10 23  1  0
 18 23  1  0
 22 23  2  0
  7 24  1  0
  4 25  1  0
 24 25  1  0
M  END
