piperidine-amides-30691-covalent
     RDKit          3D

 27 29  0  0  0  0  0  0  0  0999 V2000
    7.0720   -3.3750   19.3920 C   0  0  0  0  0  0  0  0  0  0  0  0
    6.3570   -4.2000   20.3630 C   0  0  0  0  0  0  0  0  0  0  0  0
    5.3630   -4.8400   19.9820 O   0  0  0  0  0  0  0  0  0  0  0  0
    6.7970   -4.3230   21.6900 N   0  0  0  0  0  0  0  0  0  0  0  0
    7.6460   -3.3280   22.3190 C   0  0  0  0  0  0  0  0  0  0  0  0
    6.8530   -2.7630   23.4720 C   0  0  0  0  0  0  0  0  0  0  0  0
    6.3080   -3.8440   24.3610 C   0  0  0  0  0  0  0  0  0  0  0  0
    5.3430   -3.3190   25.3870 C   0  0  0  0  0  0  0  0  0  0  0  0
    4.4900   -2.4710   25.0140 O   0  0  0  0  0  0  0  0  0  0  0  0
    5.2830   -3.6780   26.7860 N   0  0  0  0  0  0  0  0  0  0  0  0
    6.4900   -3.6820   27.6020 C   0  0  0  0  0  0  0  0  0  0  0  0
    6.7830   -4.9910   28.3240 C   0  0  0  0  0  0  0  0  0  0  0  0
    5.8600   -5.4950   29.3470 C   0  0  0  0  0  0  0  0  0  0  0  0
    4.8250   -4.4900   29.6070 C   0  0  0  0  0  0  0  0  0  0  0  0
    4.2430   -4.3220   28.2550 C   0  0  1  0  0  0  0  0  0  0  0  0
    3.1020   -3.8530   28.1320 C   0  0  2  0  0  0  0  0  0  0  0  0
    2.2560   -4.4110   27.1290 N   0  0  0  0  0  0  0  0  0  0  0  0
    0.9610   -4.5230   27.5010 C   0  0  0  0  0  0  0  0  0  0  0  0
    0.4760   -3.8820   28.4910 O   0  0  0  0  0  0  0  0  0  0  0  0
    0.2970   -5.3000   26.7930 O   0  0  0  0  0  0  0  0  0  0  0  0
   -1.0190   -5.5050   27.1740 C   0  0  0  0  0  0  0  0  0  0  0  0
   -1.8810   -4.3140   27.5260 C   0  0  0  0  0  0  0  0  0  0  0  0
   -0.9520   -6.3760   28.3890 C   0  0  0  0  0  0  0  0  0  0  0  0
   -1.7160   -6.3540   26.1530 C   0  0  0  0  0  0  0  0  0  0  0  0
    4.2400   -3.0700   27.5570 C   0  0  2  0  0  0  0  0  0  0  0  0
    5.7280   -5.0170   23.6580 C   0  0  0  0  0  0  0  0  0  0  0  0
    6.3980   -5.4140   22.5150 C   0  0  0  0  0  0  0  0  0  0  0  0
  1  2  1  0
  2  3  2  0
  2  4  1  0
  4  5  1  0
  5  6  1  0
  6  7  1  0
  7  8  1  0
  8  9  2  0
  8 10  1  0
 10 11  1  0
 11 12  1  0
 12 13  1  0
 13 14  1  0
 15 14  1  1
 15 16  1  0
 16 17  1  6
 17 18  1  0
 18 19  2  0
 18 20  1  0
 21 20  1  0
 21 22  1  0
 21 23  1  0
 21 24  1  0
 25 10  1  6
 15 25  1  0
 16 25  1  0
  7 26  1  0
  4 27  1  0
 26 27  1  0
M  END
