piperidine-amides-29094-covalent
     RDKit          3D

 26 28  0  0  0  0  0  0  0  0999 V2000
    7.0480   -3.3530   19.3610 C   0  0  0  0  0  0  0  0  0  0  0  0
    6.4050   -4.2260   20.3360 C   0  0  0  0  0  0  0  0  0  0  0  0
    5.3790   -4.8360   19.9820 O   0  0  0  0  0  0  0  0  0  0  0  0
    6.9710   -4.4200   21.6280 N   0  0  0  0  0  0  0  0  0  0  0  0
    6.4840   -5.5090   22.3980 C   0  0  0  0  0  0  0  0  0  0  0  0
    5.6410   -4.9320   23.4960 C   0  0  0  0  0  0  0  0  0  0  0  0
    6.5740   -4.1810   24.4290 C   0  0  0  0  0  0  0  0  0  0  0  0
    5.7450   -3.6990   25.6130 C   0  0  0  0  0  0  0  0  0  0  0  0
    4.5590   -3.5540   25.3270 O   0  0  0  0  0  0  0  0  0  0  0  0
    6.2240   -3.4030   26.9270 N   0  0  0  0  0  0  0  0  0  0  0  0
    5.1920   -3.0310   27.8440 C   0  0  0  0  0  0  0  0  0  0  0  0
    4.2130   -4.0280   28.1450 C   0  0  0  0  0  0  0  0  0  0  0  0
    4.9050   -5.1700   28.7730 N   0  0  0  0  0  0  0  0  0  0  0  0
    4.5890   -5.7950   30.0030 C   0  0  0  0  0  0  0  0  0  0  0  0
    3.9490   -4.8710   30.7950 O   0  0  0  0  0  0  0  0  0  0  0  0
    4.8920   -7.1170   30.2920 C   0  0  0  0  0  0  0  0  0  0  0  0
    4.1970   -7.5730   31.4060 N   0  0  0  0  0  0  0  0  0  0  0  0
    4.7940   -7.6300   32.7110 C   0  0  0  0  0  0  0  0  0  0  0  0
    4.1250   -8.5180   33.7820 C   0  0  0  0  0  0  0  0  0  0  0  0
    3.1470   -9.2690   33.3450 O   0  0  0  0  0  0  0  0  0  0  0  0
    2.3410   -8.5540   32.4710 C   0  0  0  0  0  0  0  0  0  0  0  0
    2.8080   -7.9430   31.1780 C   0  0  0  0  0  0  0  0  0  0  0  0
    6.2810   -5.1940   28.5060 C   0  0  0  0  0  0  0  0  0  0  0  0
    6.6360   -3.9260   28.2240 C   0  0  0  0  0  0  0  0  0  0  0  0
    7.1300   -3.0120   23.6620 C   0  0  0  0  0  0  0  0  0  0  0  0
    7.6090   -3.2790   22.2490 C   0  0  0  0  0  0  0  0  0  0  0  0
  1  2  1  0
  2  3  2  0
  2  4  1  0
  4  5  1  0
  5  6  1  0
  6  7  1  0
  7  8  1  0
  8  9  2  0
  8 10  1  0
 10 11  1  0
 11 12  1  0
 12 13  1  0
 13 14  1  0
 14 15  2  0
 14 16  1  0
 16 17  1  0
 17 18  1  0
 18 19  1  0
 19 20  1  0
 20 21  1  0
 17 22  1  0
 21 22  1  0
 13 23  1  0
 10 24  1  0
 23 24  1  0
  7 25  1  0
  4 26  1  0
 25 26  1  0
M  END
