piperidine-amides-27099-covalent
     RDKit          3D

 25 28  0  0  0  0  0  0  0  0999 V2000
    7.0160   -3.3690   19.4090 C   0  0  0  0  0  0  0  0  0  0  0  0
    6.3750   -4.2380   20.4020 C   0  0  0  0  0  0  0  0  0  0  0  0
    5.3840   -4.9030   19.9920 O   0  0  0  0  0  0  0  0  0  0  0  0
    6.8740   -4.3470   21.7110 N   0  0  0  0  0  0  0  0  0  0  0  0
    6.5990   -5.4980   22.5260 C   0  0  0  0  0  0  0  0  0  0  0  0
    5.8550   -5.0420   23.7600 C   0  0  0  0  0  0  0  0  0  0  0  0
    6.4050   -3.7660   24.3780 C   0  0  0  0  0  0  0  0  0  0  0  0
    5.4060   -3.1790   25.3430 C   0  0  0  0  0  0  0  0  0  0  0  0
    4.5250   -2.4530   24.8530 O   0  0  0  0  0  0  0  0  0  0  0  0
    5.3640   -3.3870   26.7650 N   0  0  0  0  0  0  0  0  0  0  0  0
    4.4890   -2.7310   27.6770 C   0  0  0  0  0  0  0  0  0  0  0  0
    4.7650   -3.5530   28.9140 C   0  0  2  0  0  0  0  0  0  0  0  0
    5.9080   -4.2320   28.7700 C   0  0  2  0  0  0  0  0  0  0  0  0
    6.3590   -4.0820   27.4820 C   0  0  0  0  0  0  0  0  0  0  0  0
    5.6100   -5.5470   29.0630 C   0  0  1  0  0  0  0  0  0  0  0  0
    6.5240   -6.4660   28.6880 C   0  0  0  0  0  0  0  0  0  0  0  0
    6.6380   -6.6210   27.3190 O   0  0  0  0  0  0  0  0  0  0  0  0
    5.0030   -5.8560   30.2440 C   0  0  0  0  0  0  0  0  0  0  0  0
    3.8420   -4.9460   30.5210 C   0  0  0  0  0  0  0  0  0  0  0  0
    3.7580   -4.4880   29.0660 C   0  0  1  0  0  0  0  0  0  0  0  0
    2.4350   -3.9990   28.5160 C   0  0  0  0  0  0  0  0  0  0  0  0
    1.3980   -4.6820   29.0950 O   0  0  0  0  0  0  0  0  0  0  0  0
    4.4190   -5.6630   28.2960 O   0  0  0  0  0  0  0  0  0  0  0  0
    6.7370   -2.7380   23.3230 C   0  0  0  0  0  0  0  0  0  0  0  0
    7.6030   -3.2720   22.3870 C   0  0  0  0  0  0  0  0  0  0  0  0
  1  2  1  0
  2  3  2  0
  2  4  1  0
  4  5  1  0
  5  6  1  0
  6  7  1  0
  7  8  1  0
  8  9  2  0
  8 10  1  0
 10 11  1  0
 12 11  1  6
 12 13  1  0
 10 14  1  0
 13 14  1  6
 13 15  1  0
 15 16  1  6
 16 17  1  0
 15 18  1  0
 18 19  1  0
 12 20  1  0
 19 20  1  0
 20 21  1  6
 21 22  1  0
 15 23  1  0
 20 23  1  0
  7 24  1  0
  4 25  1  0
 24 25  1  0
M  END
