piperidine-amides-19317-covalent
     RDKit          3D

 20 21  0  0  0  0  0  0  0  0999 V2000
    7.0870   -3.3510   19.2350 C   0  0  0  0  0  0  0  0  0  0  0  0
    6.3870   -4.0770   20.2670 C   0  0  0  0  0  0  0  0  0  0  0  0
    5.3060   -4.6510   19.9330 O   0  0  0  0  0  0  0  0  0  0  0  0
    6.8890   -4.2240   21.5810 N   0  0  0  0  0  0  0  0  0  0  0  0
    6.5970   -5.4620   22.3180 C   0  0  0  0  0  0  0  0  0  0  0  0
    5.5520   -4.8780   23.3320 C   0  0  0  0  0  0  0  0  0  0  0  0
    6.2580   -3.7850   24.1150 C   0  0  0  0  0  0  0  0  0  0  0  0
    5.2520   -3.2460   25.2310 C   0  0  0  0  0  0  0  0  0  0  0  0
    4.1130   -3.5080   24.8890 O   0  0  0  0  0  0  0  0  0  0  0  0
    5.8320   -2.6730   26.2090 N   0  0  0  0  0  0  0  0  0  0  0  0
    6.1560   -2.2430   27.4260 C   0  0  0  0  0  0  0  0  0  0  0  0
    6.7270   -1.0970   27.3880 C   0  0  0  0  0  0  0  0  0  0  0  0
    5.9430    0.0520   27.6530 C   0  0  0  0  0  0  0  0  0  0  0  0
    5.9940    0.5400   29.3370 S   0  0  0  0  0  0  0  0  0  0  0  0
    5.3370   -0.8000   30.2470 N   0  0  0  0  0  0  0  0  0  0  0  0
    5.1860    1.7560   29.5530 O   0  0  0  0  0  0  0  0  0  0  0  0
    7.4180    0.6930   29.7810 O   0  0  0  0  0  0  0  0  0  0  0  0
    6.6320   -1.3820   25.8680 C   0  0  0  0  0  0  0  0  0  0  0  0
    6.8870   -2.6560   23.2970 C   0  0  0  0  0  0  0  0  0  0  0  0
    7.6480   -3.1960   22.2600 C   0  0  0  0  0  0  0  0  0  0  0  0
  1  2  1  0
  2  3  2  0
  2  4  1  0
  4  5  1  0
  5  6  1  0
  6  7  1  0
  7  8  1  0
  8  9  2  0
  8 10  1  0
 10 11  1  0
 11 12  1  0
 12 13  1  0
 13 14  1  0
 14 15  1  0
 14 16  2  0
 14 17  2  0
 10 18  1  0
 12 18  1  0
  7 19  1  0
  4 20  1  0
 19 20  1  0
M  END
