piperidine-amides-18829-covalent
     RDKit          3D

 21 22  0  0  0  0  0  0  0  0999 V2000
    7.0430   -3.3160   19.2560 C   0  0  0  0  0  0  0  0  0  0  0  0
    6.3110   -4.0110   20.3000 C   0  0  0  0  0  0  0  0  0  0  0  0
    5.2840   -4.6560   19.9270 O   0  0  0  0  0  0  0  0  0  0  0  0
    6.6850   -4.0590   21.6700 N   0  0  0  0  0  0  0  0  0  0  0  0
    6.6790   -5.4190   22.2670 C   0  0  0  0  0  0  0  0  0  0  0  0
    6.2430   -5.1470   23.7590 C   0  0  0  0  0  0  0  0  0  0  0  0
    5.9960   -3.6650   23.8700 C   0  0  0  0  0  0  0  0  0  0  0  0
    5.0610   -3.3100   25.1220 C   0  0  0  0  0  0  0  0  0  0  0  0
    3.9920   -3.8740   24.9860 O   0  0  0  0  0  0  0  0  0  0  0  0
    5.6190   -2.5380   25.9750 N   0  0  0  0  0  0  0  0  0  0  0  0
    6.4470   -1.8090   26.7180 C   0  0  0  0  0  0  0  0  0  0  0  0
    5.9270   -1.1900   27.6840 C   0  0  0  0  0  0  0  0  0  0  0  0
    5.5720   -1.7960   28.9260 C   0  0  0  0  0  0  0  0  0  0  0  0
    6.0970   -3.1020   29.0290 O   0  0  0  0  0  0  0  0  0  0  0  0
    5.1780    0.1250   27.3950 C   0  0  0  0  0  0  0  0  0  0  0  0
    5.4100    0.6160   26.1400 O   0  0  0  0  0  0  0  0  0  0  0  0
    4.3540    0.7770   28.2860 O   0  0  0  0  0  0  0  0  0  0  0  0
    4.7560    2.0860   28.5800 C   0  0  0  0  0  0  0  0  0  0  0  0
    4.7110   -1.9420   27.1290 C   0  0  0  0  0  0  0  0  0  0  0  0
    7.2490   -2.8540   23.6770 C   0  0  0  0  0  0  0  0  0  0  0  0
    7.6130   -3.0460   22.1980 C   0  0  0  0  0  0  0  0  0  0  0  0
  1  2  1  0
  2  3  2  0
  2  4  1  0
  4  5  1  0
  5  6  1  0
  6  7  1  0
  7  8  1  0
  8  9  2  0
  8 10  1  0
 10 11  1  0
 11 12  1  0
 12 13  1  0
 13 14  1  0
 12 15  1  0
 15 16  2  0
 15 17  1  0
 17 18  1  0
 10 19  1  0
 12 19  1  0
  7 20  1  0
  4 21  1  0
 20 21  1  0
M  END
