piperidine-amides-10016-covalent
     RDKit          3D

 26 27  0  0  0  0  0  0  0  0999 V2000
    7.1450   -3.2880   19.2410 C   0  0  0  0  0  0  0  0  0  0  0  0
    6.3700   -3.9970   20.2630 C   0  0  0  0  0  0  0  0  0  0  0  0
    5.2980   -4.5380   19.8870 O   0  0  0  0  0  0  0  0  0  0  0  0
    6.8550   -4.0870   21.5660 N   0  0  0  0  0  0  0  0  0  0  0  0
    7.7930   -3.0970   22.0670 C   0  0  0  0  0  0  0  0  0  0  0  0
    7.5260   -2.8910   23.5190 C   0  0  0  0  0  0  0  0  0  0  0  0
    6.1410   -3.3620   23.8410 C   0  0  0  0  0  0  0  0  0  0  0  0
    5.7470   -2.9580   25.1980 C   0  0  0  0  0  0  0  0  0  0  0  0
    4.7860   -2.1670   25.3150 O   0  0  0  0  0  0  0  0  0  0  0  0
    6.3600   -3.4290   26.3630 N   0  0  0  0  0  0  0  0  0  0  0  0
    5.6310   -4.4170   27.0830 C   0  0  2  0  0  0  0  0  0  0  0  0
    5.8550   -4.4820   28.5680 C   0  0  0  0  0  0  0  0  0  0  0  0
    4.7460   -4.7770   29.3350 C   0  0  0  0  0  0  0  0  0  0  0  0
    3.7000   -3.8950   29.5910 C   0  0  0  0  0  0  0  0  0  0  0  0
    2.6010   -4.2660   30.3750 C   0  0  0  0  0  0  0  0  0  0  0  0
    2.4810   -5.5220   30.9430 C   0  0  0  0  0  0  0  0  0  0  0  0
    1.0990   -5.9840   31.9220 Cl  0  0  0  0  0  0  0  0  0  0  0  0
    3.4940   -6.4070   30.7050 C   0  0  0  0  0  0  0  0  0  0  0  0
    4.6900   -6.0530   29.8720 C   0  0  0  0  0  0  0  0  0  0  0  0
    5.9550   -7.2090   29.5960 Cl  0  0  0  0  0  0  0  0  0  0  0  0
    5.7230   -5.8090   26.6750 C   0  0  0  0  0  0  0  0  0  0  0  0
    4.4890   -6.6960   26.6610 C   0  0  0  0  0  0  0  0  0  0  0  0
    4.0360   -7.1720   25.2860 C   0  0  0  0  0  0  0  0  0  0  0  0
    3.3060   -6.1910   27.3760 C   0  0  0  0  0  0  0  0  0  0  0  0
    6.1080   -4.8760   23.6890 C   0  0  0  0  0  0  0  0  0  0  0  0
    6.7050   -5.3020   22.3510 C   0  0  0  0  0  0  0  0  0  0  0  0
  1  2  1  0
  2  3  2  0
  2  4  1  0
  4  5  1  0
  5  6  1  0
  6  7  1  0
  7  8  1  0
  8  9  2  0
  8 10  1  0
 10 11  1  0
 11 12  1  1
 12 13  1  0
 13 14  2  0
 14 15  1  0
 15 16  2  0
 16 17  1  0
 16 18  1  0
 13 19  1  0
 18 19  2  0
 19 20  1  0
 11 21  1  0
 21 22  1  0
 22 23  1  0
 22 24  1  0
  7 25  1  0
  4 26  1  0
 25 26  1  0
M  END
