piperidine-amides-3855-covalent
     RDKit          3D

 21 22  0  0  0  0  0  0  0  0999 V2000
    7.1100   -3.2790   19.2370 C   0  0  0  0  0  0  0  0  0  0  0  0
    6.3320   -4.0080   20.2570 C   0  0  0  0  0  0  0  0  0  0  0  0
    5.2530   -4.5170   19.8740 O   0  0  0  0  0  0  0  0  0  0  0  0
    6.7890   -4.1850   21.5880 N   0  0  0  0  0  0  0  0  0  0  0  0
    7.5950   -3.1710   22.1860 C   0  0  0  0  0  0  0  0  0  0  0  0
    7.2940   -2.9720   23.5880 C   0  0  0  0  0  0  0  0  0  0  0  0
    6.0360   -3.6270   23.9810 C   0  0  0  0  0  0  0  0  0  0  0  0
    5.5910   -3.3080   25.3740 C   0  0  0  0  0  0  0  0  0  0  0  0
    4.4040   -3.5170   25.6810 O   0  0  0  0  0  0  0  0  0  0  0  0
    6.4620   -2.7740   26.3420 N   0  0  0  0  0  0  0  0  0  0  0  0
    6.6830   -1.4120   26.6570 C   0  0  0  0  0  0  0  0  0  0  0  0
    5.6070   -0.5120   27.0380 C   0  0  0  0  0  0  0  0  0  0  0  0
    4.6590   -0.0160   25.9410 C   0  0  0  0  0  0  0  0  0  0  0  0
    3.5820    0.8360   26.0840 C   0  0  0  0  0  0  0  0  0  0  0  0
    3.4280    1.2610   27.5620 C   0  0  0  0  0  0  0  0  0  0  0  0
    2.3370    2.1180   27.6840 F   0  0  0  0  0  0  0  0  0  0  0  0
    4.2390    0.8740   28.6860 N   0  0  0  0  0  0  0  0  0  0  0  0
    5.3550   -0.0350   28.4090 C   0  0  0  0  0  0  0  0  0  0  0  0
    6.5060   -0.6260   29.8170 Br  0  0  0  0  0  0  0  0  0  0  0  0
    6.1340   -5.1420   23.7750 C   0  0  0  0  0  0  0  0  0  0  0  0
    6.5530   -5.4050   22.3370 C   0  0  0  0  0  0  0  0  0  0  0  0
  1  2  1  0
  2  3  2  0
  2  4  1  0
  4  5  1  0
  5  6  1  0
  6  7  1  0
  7  8  1  0
  8  9  2  0
  8 10  1  0
 10 11  1  0
 11 12  1  0
 12 13  2  0
 13 14  1  0
 14 15  2  0
 15 16  1  0
 15 17  1  0
 12 18  1  0
 17 18  2  0
 18 19  1  0
  7 20  1  0
  4 21  1  0
 20 21  1  0
M  END
