piperidine-amides-32236-covalent
     RDKit          3D

 27 29  0  0  0  0  0  0  0  0999 V2000
    7.0540   -3.3680   19.4010 C   0  0  0  0  0  0  0  0  0  0  0  0
    6.4020   -4.2730   20.3870 C   0  0  0  0  0  0  0  0  0  0  0  0
    5.4110   -4.9250   20.0050 O   0  0  0  0  0  0  0  0  0  0  0  0
    6.9350   -4.4120   21.6970 N   0  0  0  0  0  0  0  0  0  0  0  0
    7.6010   -3.3350   22.3720 C   0  0  0  0  0  0  0  0  0  0  0  0
    6.5660   -2.7440   23.3480 C   0  0  0  0  0  0  0  0  0  0  0  0
    6.1130   -3.7730   24.3570 C   0  0  0  0  0  0  0  0  0  0  0  0
    5.2210   -3.1410   25.4100 C   0  0  0  0  0  0  0  0  0  0  0  0
    4.6490   -2.1110   25.0670 O   0  0  0  0  0  0  0  0  0  0  0  0
    5.0590   -3.7100   26.7000 N   0  0  0  0  0  0  0  0  0  0  0  0
    4.5050   -3.2060   27.8810 C   0  0  0  0  0  0  0  0  0  0  0  0
    4.8850   -3.8070   29.0810 C   0  0  0  0  0  0  0  0  0  0  0  0
    4.9790   -5.2670   28.8740 N   0  0  0  0  0  0  0  0  0  0  0  0
    4.3650   -6.2290   29.6940 C   0  0  0  0  0  0  0  0  0  0  0  0
    5.0700   -6.4790   30.8450 C   0  0  0  0  0  0  0  0  0  0  0  0
    4.5770   -7.4630   31.8500 C   0  0  0  0  0  0  0  0  0  0  0  0
    3.2700   -8.2400   31.6480 C   0  0  0  0  0  0  0  0  0  0  0  0
    2.6440   -7.8340   30.3180 C   0  0  0  0  0  0  0  0  0  0  0  0
    3.1920   -6.9070   29.4610 C   0  0  0  0  0  0  0  0  0  0  0  0
    2.1760   -6.7560   28.0930 S   0  0  0  0  0  0  0  0  0  0  0  0
    1.6130   -8.3430   27.7090 N   0  0  0  0  0  0  0  0  0  0  0  0
    0.9900   -5.8280   28.3100 O   0  0  0  0  0  0  0  0  0  0  0  0
    2.9800   -6.2500   26.9420 O   0  0  0  0  0  0  0  0  0  0  0  0
    6.2550   -5.0970   28.2800 C   0  0  0  0  0  0  0  0  0  0  0  0
    6.1720   -4.4520   26.9170 C   0  0  0  0  0  0  0  0  0  0  0  0
    5.5110   -4.9240   23.6260 C   0  0  0  0  0  0  0  0  0  0  0  0
    6.4870   -5.4630   22.5500 C   0  0  0  0  0  0  0  0  0  0  0  0
  1  2  1  0
  2  3  2  0
  2  4  1  0
  4  5  1  0
  5  6  1  0
  6  7  1  0
  7  8  1  0
  8  9  2  0
  8 10  1  0
 10 11  1  0
 11 12  1  0
 12 13  1  0
 13 14  1  0
 14 15  2  0
 15 16  1  0
 16 17  2  0
 17 18  1  0
 14 19  1  0
 18 19  2  0
 19 20  1  0
 20 21  1  0
 20 22  2  0
 20 23  2  0
 13 24  1  0
 10 25  1  0
 24 25  1  0
  7 26  1  0
  4 27  1  0
 26 27  1  0
M  END
