piperidine-amides-1519-covalent
     RDKit          3D

 21 22  0  0  0  0  0  0  0  0999 V2000
    7.0670   -3.3240   19.3110 C   0  0  0  0  0  0  0  0  0  0  0  0
    6.3600   -4.1740   20.3070 C   0  0  0  0  0  0  0  0  0  0  0  0
    5.3360   -4.7830   19.9590 O   0  0  0  0  0  0  0  0  0  0  0  0
    6.8860   -4.3180   21.6080 N   0  0  0  0  0  0  0  0  0  0  0  0
    6.6150   -5.4940   22.3930 C   0  0  0  0  0  0  0  0  0  0  0  0
    5.8070   -5.0250   23.6050 C   0  0  0  0  0  0  0  0  0  0  0  0
    6.5120   -3.8350   24.1570 C   0  0  0  0  0  0  0  0  0  0  0  0
    5.8000   -3.2260   25.3040 C   0  0  0  0  0  0  0  0  0  0  0  0
    4.5850   -3.0360   25.1610 O   0  0  0  0  0  0  0  0  0  0  0  0
    6.4940   -2.9060   26.4720 N   0  0  0  0  0  0  0  0  0  0  0  0
    6.4760   -1.6830   27.1920 C   0  0  0  0  0  0  0  0  0  0  0  0
    7.0160   -1.5760   28.4500 C   0  0  0  0  0  0  0  0  0  0  0  0
    7.0140   -0.3960   29.1950 C   0  0  0  0  0  0  0  0  0  0  0  0
    6.4560    0.7470   28.6910 C   0  0  0  0  0  0  0  0  0  0  0  0
    5.8500    0.7270   27.3390 C   0  0  0  0  0  0  0  0  0  0  0  0
    5.2080    1.9820   26.7190 C   0  0  0  0  0  0  0  0  0  0  0  0
    5.0580    1.8230   25.2040 C   0  0  0  0  0  0  0  0  0  0  0  0
    4.8170    3.1130   27.4510 C   0  0  0  0  0  0  0  0  0  0  0  0
    5.8760   -0.4610   26.6400 C   0  0  0  0  0  0  0  0  0  0  0  0
    6.7930   -2.7620   23.1620 C   0  0  0  0  0  0  0  0  0  0  0  0
    7.6580   -3.2770   22.2400 C   0  0  0  0  0  0  0  0  0  0  0  0
  1  2  1  0
  2  3  2  0
  2  4  1  0
  4  5  1  0
  5  6  1  0
  6  7  1  0
  7  8  1  0
  8  9  2  0
  8 10  1  0
 10 11  1  0
 11 12  2  0
 12 13  1  0
 13 14  2  0
 14 15  1  0
 15 16  1  0
 16 17  2  3
 16 18  1  0
 11 19  1  0
 15 19  2  0
  7 20  1  0
  4 21  1  0
 20 21  1  0
M  END
