piperidine-amides-23865-covalent
     RDKit          3D

 24 26  0  0  0  0  0  0  0  0999 V2000
    7.0570   -3.3650   19.3160 C   0  0  0  0  0  0  0  0  0  0  0  0
    6.4220   -4.2230   20.3280 C   0  0  0  0  0  0  0  0  0  0  0  0
    5.3680   -4.8060   19.9770 O   0  0  0  0  0  0  0  0  0  0  0  0
    7.0070   -4.4370   21.6110 N   0  0  0  0  0  0  0  0  0  0  0  0
    6.5540   -5.5290   22.3830 C   0  0  0  0  0  0  0  0  0  0  0  0
    6.1360   -5.1730   23.7430 C   0  0  0  0  0  0  0  0  0  0  0  0
    6.4390   -3.8000   24.2280 C   0  0  0  0  0  0  0  0  0  0  0  0
    5.3240   -3.3130   25.1230 C   0  0  0  0  0  0  0  0  0  0  0  0
    4.3470   -2.7680   24.5970 O   0  0  0  0  0  0  0  0  0  0  0  0
    5.3350   -3.4400   26.5210 N   0  0  0  0  0  0  0  0  0  0  0  0
    4.3380   -3.9870   27.3650 C   0  0  0  0  0  0  0  0  0  0  0  0
    4.6990   -4.7840   28.5460 C   0  0  0  0  0  0  0  0  0  0  0  0
    5.7820   -4.0280   29.3050 C   0  0  0  0  0  0  0  0  0  0  0  0
    5.2930   -2.8440   29.8440 C   0  0  0  0  0  0  0  0  0  0  0  0
    6.2960   -1.8000   29.5090 C   0  0  0  0  0  0  0  0  0  0  0  0
    5.4210   -0.8820   30.2110 C   0  0  0  0  0  0  0  0  0  0  0  0
    4.2810   -1.4180   30.7370 N   0  0  0  0  0  0  0  0  0  0  0  0
    4.1280   -2.7770   30.5190 N   0  0  0  0  0  0  0  0  0  0  0  0
    3.0240   -3.6190   30.9590 C   0  0  0  0  0  0  0  0  0  0  0  0
    3.1620   -3.5510   32.4610 C   0  0  0  0  0  0  0  0  0  0  0  0
    6.7650   -3.7490   28.4130 C   0  0  0  0  0  0  0  0  0  0  0  0
    6.4870   -2.9720   27.1350 C   0  0  0  0  0  0  0  0  0  0  0  0
    6.7260   -2.8300   23.1230 C   0  0  0  0  0  0  0  0  0  0  0  0
    7.7120   -3.3890   22.3140 C   0  0  0  0  0  0  0  0  0  0  0  0
  1  2  1  0
  2  3  2  0
  2  4  1  0
  4  5  1  0
  5  6  1  0
  6  7  1  0
  7  8  1  0
  8  9  2  0
  8 10  1  0
 10 11  1  0
 11 12  1  0
 12 13  1  0
 13 14  1  0
 14 15  2  0
 15 16  1  0
 16 17  2  0
 14 18  1  0
 17 18  1  0
 18 19  1  0
 19 20  1  0
 13 21  1  0
 10 22  1  0
 21 22  1  0
  7 23  1  0
  4 24  1  0
 23 24  1  0
M  END
