piperidine-amides-12132-covalent
     RDKit          3D

 25 26  0  0  0  0  0  0  0  0999 V2000
    7.0790   -3.2600   19.2570 C   0  0  0  0  0  0  0  0  0  0  0  0
    6.3080   -4.0280   20.2350 C   0  0  0  0  0  0  0  0  0  0  0  0
    5.2760   -4.5980   19.8960 O   0  0  0  0  0  0  0  0  0  0  0  0
    6.7750   -4.1530   21.5860 N   0  0  0  0  0  0  0  0  0  0  0  0
    6.5850   -5.4000   22.2840 C   0  0  0  0  0  0  0  0  0  0  0  0
    5.9460   -5.1270   23.6110 C   0  0  0  0  0  0  0  0  0  0  0  0
    5.9650   -3.6200   23.7900 C   0  0  0  0  0  0  0  0  0  0  0  0
    5.3830   -3.2670   25.1190 C   0  0  0  0  0  0  0  0  0  0  0  0
    4.1600   -3.3300   25.3380 O   0  0  0  0  0  0  0  0  0  0  0  0
    6.2250   -2.8340   26.1710 N   0  0  0  0  0  0  0  0  0  0  0  0
    6.6930   -3.7900   27.1390 C   0  0  1  0  0  0  0  0  0  0  0  0
    5.8040   -5.0100   27.2110 C   0  0  0  0  0  0  0  0  0  0  0  0
    4.6310   -4.6920   27.8740 O   0  0  0  0  0  0  0  0  0  0  0  0
    8.0030   -4.2300   26.6990 C   0  0  0  0  0  0  0  0  0  0  0  0
    8.3660   -5.5290   27.0170 C   0  0  0  0  0  0  0  0  0  0  0  0
    9.5770   -5.9530   26.6240 C   0  0  0  0  0  0  0  0  0  0  0  0
   10.4280   -5.0470   25.9130 C   0  0  0  0  0  0  0  0  0  0  0  0
   10.1760   -3.7660   25.5490 C   0  0  0  0  0  0  0  0  0  0  0  0
   10.9760   -2.8650   24.8660 C   0  0  0  0  0  0  0  0  0  0  0  0
   10.6490   -1.6010   25.1730 F   0  0  0  0  0  0  0  0  0  0  0  0
   10.7990   -3.0070   23.5160 F   0  0  0  0  0  0  0  0  0  0  0  0
   12.3220   -3.1150   25.1310 F   0  0  0  0  0  0  0  0  0  0  0  0
    8.8030   -3.3540   26.0040 C   0  0  0  0  0  0  0  0  0  0  0  0
    7.2400   -2.9820   23.5260 C   0  0  0  0  0  0  0  0  0  0  0  0
    7.6030   -3.1340   22.1930 C   0  0  0  0  0  0  0  0  0  0  0  0
  1  2  1  0
  2  3  2  0
  2  4  1  0
  4  5  1  0
  5  6  1  0
  6  7  1  0
  7  8  1  0
  8  9  2  0
  8 10  1  0
 10 11  1  0
 11 12  1  6
 12 13  1  0
 11 14  1  0
 14 15  2  0
 15 16  1  0
 16 17  2  0
 17 18  1  0
 18 19  1  0
 19 20  1  0
 19 21  1  0
 19 22  1  0
 14 23  1  0
 18 23  2  0
  7 24  1  0
  4 25  1  0
 24 25  1  0
M  END
