piperidine-amides-14426-covalent
     RDKit          3D

 25 26  0  0  0  0  0  0  0  0999 V2000
    7.0560   -3.3350   19.3440 C   0  0  0  0  0  0  0  0  0  0  0  0
    6.4090   -4.1990   20.3260 C   0  0  0  0  0  0  0  0  0  0  0  0
    5.3790   -4.8030   19.9760 O   0  0  0  0  0  0  0  0  0  0  0  0
    6.9810   -4.3780   21.6130 N   0  0  0  0  0  0  0  0  0  0  0  0
    6.5550   -5.4930   22.4030 C   0  0  0  0  0  0  0  0  0  0  0  0
    5.7650   -4.9740   23.5660 C   0  0  0  0  0  0  0  0  0  0  0  0
    6.5650   -3.8430   24.1720 C   0  0  0  0  0  0  0  0  0  0  0  0
    5.7980   -3.2130   25.2940 C   0  0  0  0  0  0  0  0  0  0  0  0
    4.6350   -2.9000   25.0530 O   0  0  0  0  0  0  0  0  0  0  0  0
    6.4360   -3.0420   26.5130 N   0  0  0  0  0  0  0  0  0  0  0  0
    6.4490   -1.7990   27.2100 C   0  0  0  0  0  0  0  0  0  0  0  0
    6.9810   -1.6250   28.5080 C   0  0  0  0  0  0  0  0  0  0  0  0
    6.9860   -0.4090   29.1910 C   0  0  0  0  0  0  0  0  0  0  0  0
    6.4610    0.7720   28.6560 C   0  0  0  0  0  0  0  0  0  0  0  0
    6.5530    1.8860   29.4770 O   0  0  0  0  0  0  0  0  0  0  0  0
    5.4930    2.0150   30.3460 C   0  0  0  0  0  0  0  0  0  0  0  0
    5.5460    2.5030   31.8130 C   0  0  0  0  0  0  0  0  0  0  0  0
    4.8920    4.0940   32.1280 S   0  0  0  0  0  0  0  0  0  0  0  0
    3.8890    4.0030   33.6000 C   0  0  0  0  0  0  0  0  0  0  0  0
    4.1290    4.6290   30.9590 O   0  0  0  0  0  0  0  0  0  0  0  0
    6.0530    4.9810   32.4190 O   0  0  0  0  0  0  0  0  0  0  0  0
    5.9020    0.7370   27.3690 C   0  0  0  0  0  0  0  0  0  0  0  0
    5.8890   -0.5810   26.6110 C   0  0  0  0  0  0  0  0  0  0  0  0
    6.7810   -2.7520   23.1480 C   0  0  0  0  0  0  0  0  0  0  0  0
    7.6850   -3.3090   22.2780 C   0  0  0  0  0  0  0  0  0  0  0  0
  1  2  1  0
  2  3  2  0
  2  4  1  0
  4  5  1  0
  5  6  1  0
  6  7  1  0
  7  8  1  0
  8  9  2  0
  8 10  1  0
 10 11  1  0
 11 12  2  0
 12 13  1  0
 13 14  2  0
 14 15  1  0
 15 16  1  0
 16 17  1  0
 18 17  1  0
 18 19  1  0
 18 20  2  0
 18 21  2  0
 14 22  1  0
 11 23  1  0
 22 23  2  0
  7 24  1  0
  4 25  1  0
 24 25  1  0
M  END
