piperidine-amides-3890-covalent
     RDKit          3D

 21 21  0  0  0  0  0  0  0  0999 V2000
    7.1080   -3.3140   19.2460 C   0  0  0  0  0  0  0  0  0  0  0  0
    6.3610   -4.0440   20.2820 C   0  0  0  0  0  0  0  0  0  0  0  0
    5.2990   -4.6040   19.9130 O   0  0  0  0  0  0  0  0  0  0  0  0
    6.8430   -4.1610   21.6150 N   0  0  0  0  0  0  0  0  0  0  0  0
    6.5270   -5.3320   22.3550 C   0  0  0  0  0  0  0  0  0  0  0  0
    6.1140   -5.0350   23.7230 C   0  0  0  0  0  0  0  0  0  0  0  0
    6.1160   -3.5920   24.0150 C   0  0  0  0  0  0  0  0  0  0  0  0
    5.5890   -3.2690   25.3880 C   0  0  0  0  0  0  0  0  0  0  0  0
    4.3870   -2.9660   25.4960 O   0  0  0  0  0  0  0  0  0  0  0  0
    6.3850   -3.2900   26.5550 N   0  0  0  0  0  0  0  0  0  0  0  0
    6.1150   -3.9090   27.8110 C   0  0  0  0  0  0  0  0  0  0  0  0
    5.8100   -5.3380   27.9410 C   0  0  0  0  0  0  0  0  0  0  0  0
    6.8390   -5.9570   28.8980 C   0  0  0  0  0  0  0  0  0  0  0  0
    5.5770   -6.1960   26.7900 C   0  0  0  0  0  0  0  0  0  0  0  0
    4.4840   -5.4640   28.8140 C   0  0  0  0  0  0  0  0  0  0  0  0
    3.6040   -4.4580   28.4160 F   0  0  0  0  0  0  0  0  0  0  0  0
    4.9480   -5.1150   30.0660 F   0  0  0  0  0  0  0  0  0  0  0  0
    3.9400   -6.8680   28.7230 C   0  0  0  0  0  0  0  0  0  0  0  0
    4.7750   -7.3150   29.9400 C   0  0  0  0  0  0  0  0  0  0  0  0
    7.4320   -2.9360   23.6890 C   0  0  0  0  0  0  0  0  0  0  0  0
    7.7060   -3.1370   22.1990 C   0  0  0  0  0  0  0  0  0  0  0  0
  1  2  1  0
  2  3  2  0
  2  4  1  0
  4  5  1  0
  5  6  1  0
  6  7  1  0
  7  8  1  0
  8  9  2  0
  8 10  1  0
 10 11  1  0
 12 11  1  0
 12 13  1  0
 12 14  1  0
 12 15  1  0
 15 16  1  0
 15 17  1  0
 15 18  1  0
 18 19  1  0
  7 20  1  0
  4 21  1  0
 20 21  1  0
M  END
