piperidine-amides-737-covalent
     RDKit          3D

 25 27  0  0  0  0  0  0  0  0999 V2000
    7.1780   -3.3070   19.3760 C   0  0  0  0  0  0  0  0  0  0  0  0
    6.4480   -4.0950   20.3400 C   0  0  0  0  0  0  0  0  0  0  0  0
    5.4010   -4.7130   19.9550 O   0  0  0  0  0  0  0  0  0  0  0  0
    6.8960   -4.2240   21.6740 N   0  0  0  0  0  0  0  0  0  0  0  0
    7.7640   -3.1700   22.2340 C   0  0  0  0  0  0  0  0  0  0  0  0
    6.7320   -2.5030   23.2100 C   0  0  0  0  0  0  0  0  0  0  0  0
    6.3520   -3.5940   24.1800 C   0  0  0  0  0  0  0  0  0  0  0  0
    5.3510   -3.0610   25.3050 C   0  0  0  0  0  0  0  0  0  0  0  0
    4.2090   -3.3850   25.0240 O   0  0  0  0  0  0  0  0  0  0  0  0
    5.9730   -2.4310   26.2260 N   0  0  0  0  0  0  0  0  0  0  0  0
    6.5890   -1.7970   27.2620 C   0  0  0  0  0  0  0  0  0  0  0  0
    6.4310   -1.2190   28.4970 C   0  0  0  0  0  0  0  0  0  0  0  0
    5.3460   -1.4610   29.3970 C   0  0  0  0  0  0  0  0  0  0  0  0
    5.4200   -0.7250   30.6690 C   0  0  0  0  0  0  0  0  0  0  0  0
    6.7230   -0.1020   30.2060 C   0  0  0  0  0  0  0  0  0  0  0  0
    7.2100    0.7550   31.1990 C   0  0  0  0  0  0  0  0  0  0  0  0
    6.2430    1.0560   32.1780 N   0  0  0  0  0  0  0  0  0  0  0  0
    5.1700    2.0190   31.9690 C   0  0  0  0  0  0  0  0  0  0  0  0
    4.2040    1.9770   33.1630 C   0  0  0  0  0  0  0  0  0  0  0  0
    4.6150    1.1420   33.9930 O   0  0  0  0  0  0  0  0  0  0  0  0
    5.8290    1.5720   34.5110 C   0  0  0  0  0  0  0  0  0  0  0  0
    6.6930    1.1820   33.5250 C   0  0  0  0  0  0  0  0  0  0  0  0
    7.2880   -0.3150   29.1070 O   0  0  0  0  0  0  0  0  0  0  0  0
    5.8290   -4.9000   23.5650 C   0  0  0  0  0  0  0  0  0  0  0  0
    6.5400   -5.3470   22.4900 C   0  0  0  0  0  0  0  0  0  0  0  0
  1  2  1  0
  2  3  2  0
  2  4  1  0
  4  5  1  0
  5  6  1  0
  6  7  1  0
  7  8  1  0
  8  9  2  0
  8 10  1  0
 10 11  1  0
 11 12  1  0
 12 13  2  0
 13 14  1  0
 14 15  2  0
 15 16  1  0
 16 17  1  0
 17 18  1  0
 18 19  1  0
 19 20  1  0
 20 21  1  0
 17 22  1  0
 21 22  1  0
 12 23  1  0
 15 23  1  0
  7 24  1  0
  4 25  1  0
 24 25  1  0
M  END
