piperidine-amides-30582-covalent
     RDKit          3D

 23 25  0  0  0  0  0  0  0  0999 V2000
    7.0720   -3.3530   19.3430 C   0  0  0  0  0  0  0  0  0  0  0  0
    6.3920   -4.2060   20.3190 C   0  0  0  0  0  0  0  0  0  0  0  0
    5.3570   -4.8000   19.9700 O   0  0  0  0  0  0  0  0  0  0  0  0
    6.8990   -4.4270   21.6140 N   0  0  0  0  0  0  0  0  0  0  0  0
    6.4950   -5.5430   22.4130 C   0  0  0  0  0  0  0  0  0  0  0  0
    5.7290   -4.9240   23.5560 C   0  0  0  0  0  0  0  0  0  0  0  0
    6.4110   -3.7030   24.1330 C   0  0  0  0  0  0  0  0  0  0  0  0
    5.5810   -2.9990   25.1570 C   0  0  0  0  0  0  0  0  0  0  0  0
    4.3790   -2.7090   24.8960 O   0  0  0  0  0  0  0  0  0  0  0  0
    6.0380   -2.6540   26.4500 N   0  0  0  0  0  0  0  0  0  0  0  0
    5.0720   -1.9940   27.3420 C   0  0  0  0  0  0  0  0  0  0  0  0
    4.3420   -3.0530   28.0680 C   0  0  0  0  0  0  0  0  0  0  0  0
    5.1450   -3.7110   29.0670 C   0  0  0  0  0  0  0  0  0  0  0  0
    6.2820   -4.3450   28.4090 C   0  0  0  0  0  0  0  0  0  0  0  0
    6.9330   -5.4980   29.0470 C   0  0  0  0  0  0  0  0  0  0  0  0
    8.0270   -5.9820   28.2610 C   0  0  0  0  0  0  0  0  0  0  0  0
    8.3700   -5.4210   27.1080 C   0  0  0  0  0  0  0  0  0  0  0  0
    9.7260   -6.0490   26.1400 Br  0  0  0  0  0  0  0  0  0  0  0  0
    7.7970   -4.3910   26.5300 C   0  0  0  0  0  0  0  0  0  0  0  0
    8.2950   -3.8430   25.2090 C   0  0  0  0  0  0  0  0  0  0  0  0
    6.6760   -3.7350   27.1030 C   0  0  0  0  0  0  0  0  0  0  0  0
    6.8330   -2.7530   22.9960 C   0  0  0  0  0  0  0  0  0  0  0  0
    7.6000   -3.3220   22.2640 C   0  0  0  0  0  0  0  0  0  0  0  0
  1  2  1  0
  2  3  2  0
  2  4  1  0
  4  5  1  0
  5  6  1  0
  6  7  1  0
  7  8  1  0
  8  9  2  0
  8 10  1  0
 10 11  1  0
 11 12  1  0
 12 13  1  0
 13 14  1  0
 14 15  2  0
 15 16  1  0
 16 17  2  0
 17 18  1  0
 17 19  1  0
 19 20  1  0
 10 21  1  0
 14 21  1  0
 19 21  2  0
  7 22  1  0
  4 23  1  0
 22 23  1  0
M  END
