piperidine-amides-15306-covalent
     RDKit          3D

 16 16  0  0  0  0  0  0  0  0999 V2000
    7.0380   -3.3010   19.2910 C   0  0  0  0  0  0  0  0  0  0  0  0
    6.3300   -4.1090   20.3000 C   0  0  0  0  0  0  0  0  0  0  0  0
    5.3340   -4.7820   19.9600 O   0  0  0  0  0  0  0  0  0  0  0  0
    6.7630   -4.1820   21.6340 N   0  0  0  0  0  0  0  0  0  0  0  0
    7.6160   -3.1300   22.1730 C   0  0  0  0  0  0  0  0  0  0  0  0
    7.3670   -3.0120   23.6840 C   0  0  0  0  0  0  0  0  0  0  0  0
    6.0320   -3.6690   23.9490 C   0  0  0  0  0  0  0  0  0  0  0  0
    5.5460   -3.4200   25.3270 C   0  0  0  0  0  0  0  0  0  0  0  0
    4.3140   -3.4740   25.5150 O   0  0  0  0  0  0  0  0  0  0  0  0
    6.4260   -3.1170   26.3920 N   0  0  0  0  0  0  0  0  0  0  0  0
    6.8530   -1.7480   26.4870 C   0  0  0  0  0  0  0  0  0  0  0  0
    6.2320   -3.8130   27.6670 C   0  0  0  0  0  0  0  0  0  0  0  0
    6.1510   -5.1750   27.4710 C   0  0  0  0  0  0  0  0  0  0  0  0
    6.7570   -5.9690   28.2640 O   0  0  0  0  0  0  0  0  0  0  0  0
    6.1540   -5.1200   23.6480 C   0  0  0  0  0  0  0  0  0  0  0  0
    6.6370   -5.4010   22.3760 C   0  0  0  0  0  0  0  0  0  0  0  0
  1  2  1  0
  2  3  2  0
  2  4  1  0
  4  5  1  0
  5  6  1  0
  6  7  1  0
  7  8  1  0
  8  9  2  0
  8 10  1  0
 10 11  1  0
 10 12  1  0
 12 13  1  0
 13 14  1  0
  7 15  1  0
  4 16  1  0
 15 16  1  0
M  END
