piperidine-amides-17254-covalent
     RDKit          3D

 20 21  0  0  0  0  0  0  0  0999 V2000
    7.0990   -3.3630   19.2900 C   0  0  0  0  0  0  0  0  0  0  0  0
    6.4450   -4.2140   20.2930 C   0  0  0  0  0  0  0  0  0  0  0  0
    5.3630   -4.7510   19.9600 O   0  0  0  0  0  0  0  0  0  0  0  0
    7.0590   -4.4730   21.5470 N   0  0  0  0  0  0  0  0  0  0  0  0
    6.5540   -5.5470   22.3100 C   0  0  0  0  0  0  0  0  0  0  0  0
    5.8820   -5.1260   23.5390 C   0  0  0  0  0  0  0  0  0  0  0  0
    6.3390   -3.8580   24.1600 C   0  0  0  0  0  0  0  0  0  0  0  0
    5.2630   -3.3260   25.0490 C   0  0  0  0  0  0  0  0  0  0  0  0
    4.2790   -2.7780   24.5420 O   0  0  0  0  0  0  0  0  0  0  0  0
    5.3320   -3.4290   26.4370 N   0  0  0  0  0  0  0  0  0  0  0  0
    6.4810   -3.2600   27.1590 C   0  0  0  0  0  0  0  0  0  0  0  0
    6.7850   -4.2430   28.1990 C   0  0  0  0  0  0  0  0  0  0  0  0
    5.5300   -4.2380   28.9980 C   0  0  0  0  0  0  0  0  0  0  0  0
    4.9450   -2.9840   29.2240 C   0  0  2  0  0  0  0  0  0  0  0  0
    6.2900   -2.2540   29.3630 C   0  0  0  0  0  0  0  0  0  0  0  0
    4.1670   -2.7760   30.3450 O   0  0  0  0  0  0  0  0  0  0  0  0
    4.3520   -4.5430   28.2170 C   0  0  0  0  0  0  0  0  0  0  0  0
    4.1130   -3.4360   27.1810 C   0  0  0  0  0  0  0  0  0  0  0  0
    6.8400   -2.7850   23.2250 C   0  0  0  0  0  0  0  0  0  0  0  0
    7.7790   -3.4360   22.2390 C   0  0  0  0  0  0  0  0  0  0  0  0
  1  2  1  0
  2  3  2  0
  2  4  1  0
  4  5  1  0
  5  6  1  0
  6  7  1  0
  7  8  1  0
  8  9  2  0
  8 10  1  0
 10 11  1  0
 11 12  1  0
 12 13  1  0
 13 14  1  0
 14 15  1  1
 14 16  1  0
 13 17  1  0
 10 18  1  0
 17 18  1  0
  7 19  1  0
  4 20  1  0
 19 20  1  0
M  END
