piperidine-amides-778-covalent
     RDKit          3D

 25 27  0  0  0  0  0  0  0  0999 V2000
    7.1150   -3.3670   19.2520 C   0  0  0  0  0  0  0  0  0  0  0  0
    6.3770   -4.0490   20.2810 C   0  0  0  0  0  0  0  0  0  0  0  0
    5.3050   -4.6350   19.9320 O   0  0  0  0  0  0  0  0  0  0  0  0
    6.8370   -4.1510   21.6100 N   0  0  0  0  0  0  0  0  0  0  0  0
    6.6810   -5.4500   22.2890 C   0  0  0  0  0  0  0  0  0  0  0  0
    5.7000   -4.9740   23.4120 C   0  0  0  0  0  0  0  0  0  0  0  0
    6.4370   -3.8910   24.1680 C   0  0  0  0  0  0  0  0  0  0  0  0
    5.5480   -3.4950   25.4210 C   0  0  0  0  0  0  0  0  0  0  0  0
    4.5010   -4.1180   25.3630 O   0  0  0  0  0  0  0  0  0  0  0  0
    6.0780   -2.6320   26.1940 N   0  0  0  0  0  0  0  0  0  0  0  0
    6.3600   -1.6730   27.1200 C   0  0  0  0  0  0  0  0  0  0  0  0
    6.9560   -1.5990   28.3450 C   0  0  0  0  0  0  0  0  0  0  0  0
    7.0370   -0.3980   29.0440 C   0  0  0  0  0  0  0  0  0  0  0  0
    7.6650   -0.4490   30.3020 F   0  0  0  0  0  0  0  0  0  0  0  0
    6.5510    0.9240   28.6550 C   0  0  0  0  0  0  0  0  0  0  0  0
    6.5760    2.1910   29.2840 N   0  0  0  0  0  0  0  0  0  0  0  0
    5.6660    2.6600   30.2850 C   0  0  0  0  0  0  0  0  0  0  0  0
    5.9950    3.9890   29.9960 C   0  0  0  0  0  0  0  0  0  0  0  0
    7.3880    4.2620   29.9410 C   0  0  0  0  0  0  0  0  0  0  0  0
    6.9750    3.4410   28.6910 C   0  0  0  0  0  0  0  0  0  0  0  0
    5.9190    0.7970   27.3110 C   0  0  0  0  0  0  0  0  0  0  0  0
    5.3950    1.9050   26.7390 F   0  0  0  0  0  0  0  0  0  0  0  0
    5.7890   -0.3530   26.5380 C   0  0  0  0  0  0  0  0  0  0  0  0
    6.9260   -2.7110   23.3440 C   0  0  0  0  0  0  0  0  0  0  0  0
    7.6070   -3.1000   22.2370 C   0  0  0  0  0  0  0  0  0  0  0  0
  1  2  1  0
  2  3  2  0
  2  4  1  0
  4  5  1  0
  5  6  1  0
  6  7  1  0
  7  8  1  0
  8  9  2  0
  8 10  1  0
 10 11  1  0
 11 12  2  0
 12 13  1  0
 13 14  1  0
 13 15  2  0
 15 16  1  0
 16 17  1  0
 17 18  1  0
 18 19  1  0
 16 20  1  0
 19 20  1  0
 15 21  1  0
 21 22  1  0
 11 23  1  0
 21 23  2  0
  7 24  1  0
  4 25  1  0
 24 25  1  0
M  END
