piperidine-amides-23454-covalent
     RDKit          3D

 24 26  0  0  0  0  0  0  0  0999 V2000
    7.0710   -3.4020   19.3780 C   0  0  0  0  0  0  0  0  0  0  0  0
    6.3950   -4.2230   20.3910 C   0  0  0  0  0  0  0  0  0  0  0  0
    5.3870   -4.8630   19.9960 O   0  0  0  0  0  0  0  0  0  0  0  0
    6.8970   -4.3280   21.7200 N   0  0  0  0  0  0  0  0  0  0  0  0
    6.6020   -5.5000   22.4840 C   0  0  0  0  0  0  0  0  0  0  0  0
    6.0710   -5.1610   23.7930 C   0  0  0  0  0  0  0  0  0  0  0  0
    6.1140   -3.7060   23.9790 C   0  0  0  0  0  0  0  0  0  0  0  0
    5.5670   -3.2000   25.2930 C   0  0  0  0  0  0  0  0  0  0  0  0
    4.6960   -2.3180   25.2490 O   0  0  0  0  0  0  0  0  0  0  0  0
    5.9360   -3.6580   26.5710 N   0  0  0  0  0  0  0  0  0  0  0  0
    6.4300   -2.9010   27.6210 C   0  0  0  0  0  0  0  0  0  0  0  0
    6.6780   -3.7670   28.7510 C   0  0  0  0  0  0  0  0  0  0  0  0
    5.8870   -4.9940   28.2950 C   0  0  1  0  0  0  0  0  0  0  0  0
    6.0510   -6.2510   28.7970 C   0  0  0  0  0  0  0  0  0  0  0  0
    5.4280   -7.1800   27.9910 O   0  0  0  0  0  0  0  0  0  0  0  0
    4.9610   -5.4340   29.4470 C   0  0  0  0  0  0  0  0  0  0  0  0
    6.0950   -6.3410   29.7840 C   0  0  0  0  0  0  0  0  0  0  0  0
    5.6010   -7.1120   31.0460 C   0  0  0  0  0  0  0  0  0  0  0  0
    4.2910   -7.0400   31.8390 C   0  0  0  0  0  0  0  0  0  0  0  0
    3.2680   -6.0360   31.3150 C   0  0  0  0  0  0  0  0  0  0  0  0
    3.6320   -5.2210   30.0840 C   0  0  0  0  0  0  0  0  0  0  0  0
    5.1920   -4.7500   27.1190 C   0  0  0  0  0  0  0  0  0  0  0  0
    7.4490   -3.1390   23.6260 C   0  0  0  0  0  0  0  0  0  0  0  0
    7.7260   -3.2670   22.2670 C   0  0  0  0  0  0  0  0  0  0  0  0
  1  2  1  0
  2  3  2  0
  2  4  1  0
  4  5  1  0
  5  6  1  0
  6  7  1  0
  7  8  1  0
  8  9  2  0
  8 10  1  0
 10 11  1  0
 11 12  1  0
 12 13  1  0
 13 14  1  6
 14 15  1  0
 13 16  1  0
 16 17  2  0
 17 18  1  0
 18 19  2  0
 19 20  1  0
 16 21  1  0
 20 21  2  0
 10 22  1  0
 13 22  1  0
  7 23  1  0
  4 24  1  0
 23 24  1  0
M  END
