piperidine-amides-34837-covalent
     RDKit          3D

 32 34  0  0  0  0  0  0  0  0999 V2000
    7.1290   -3.2820   19.2730 C   0  0  0  0  0  0  0  0  0  0  0  0
    6.3340   -4.0500   20.2650 C   0  0  0  0  0  0  0  0  0  0  0  0
    5.2720   -4.5300   19.8770 O   0  0  0  0  0  0  0  0  0  0  0  0
    6.8200   -4.2520   21.5610 N   0  0  0  0  0  0  0  0  0  0  0  0
    6.5310   -5.4520   22.2880 C   0  0  0  0  0  0  0  0  0  0  0  0
    5.8200   -5.0800   23.5570 C   0  0  0  0  0  0  0  0  0  0  0  0
    6.5230   -3.8830   24.2040 C   0  0  0  0  0  0  0  0  0  0  0  0
    5.7260   -3.4770   25.3830 C   0  0  0  0  0  0  0  0  0  0  0  0
    4.4900   -3.4370   25.3020 O   0  0  0  0  0  0  0  0  0  0  0  0
    6.3530   -3.1080   26.5880 N   0  0  0  0  0  0  0  0  0  0  0  0
    6.1350   -3.8720   27.8100 C   0  0  0  0  0  0  0  0  0  0  0  0
    6.0040   -5.3540   27.4750 C   0  0  0  0  0  0  0  0  0  0  0  0
    4.9030   -6.0960   27.7680 C   0  0  0  0  0  0  0  0  0  0  0  0
    4.2130   -6.8360   26.8620 C   0  0  0  0  0  0  0  0  0  0  0  0
    3.1280   -7.5420   27.2660 C   0  0  0  0  0  0  0  0  0  0  0  0
    2.4510   -7.7150   28.5950 C   0  0  0  0  0  0  0  0  0  0  0  0
    3.1870   -6.9140   29.6110 C   0  0  0  0  0  0  0  0  0  0  0  0
    2.8490   -6.8360   30.9310 O   0  0  0  0  0  0  0  0  0  0  0  0
    2.7860   -8.0640   31.5880 C   0  0  0  0  0  0  0  0  0  0  0  0
    4.4080   -6.1020   29.2220 C   0  0  0  0  0  0  0  0  0  0  0  0
    6.6290   -1.7080   26.9420 C   0  0  0  0  0  0  0  0  0  0  0  0
    6.4490   -1.3040   28.3980 C   0  0  0  0  0  0  0  0  0  0  0  0
    7.5070   -1.2140   29.4200 C   0  0  0  0  0  0  0  0  0  0  0  0
    6.9180   -0.7880   30.6300 N   0  0  0  0  0  0  0  0  0  0  0  0
    5.6350   -0.6100   30.4930 N   0  0  0  0  0  0  0  0  0  0  0  0
    4.9280   -0.1710   31.6760 C   0  0  2  0  0  0  0  0  0  0  0  0
    3.7030   -0.8020   31.6310 C   0  0  0  0  0  0  0  0  0  0  0  0
    4.7390    1.3390   31.6320 C   0  0  0  0  0  0  0  0  0  0  0  0
    5.7860    1.9860   30.7130 C   0  0  0  0  0  0  0  0  0  0  0  0
    5.2840   -0.9250   29.0900 C   0  0  0  0  0  0  0  0  0  0  0  0
    6.8060   -2.6910   23.3290 C   0  0  0  0  0  0  0  0  0  0  0  0
    7.6360   -3.2110   22.1550 C   0  0  0  0  0  0  0  0  0  0  0  0
  1  2  1  0
  2  3  2  0
  2  4  1  0
  4  5  1  0
  5  6  1  0
  6  7  1  0
  7  8  1  0
  8  9  2  0
  8 10  1  0
 10 11  1  0
 11 12  1  0
 12 13  1  0
 13 14  2  0
 14 15  1  0
 15 16  2  0
 16 17  1  0
 17 18  1  0
 18 19  1  0
 13 20  1  0
 17 20  2  0
 10 21  1  0
 21 22  1  0
 22 23  1  0
 23 24  2  0
 24 25  1  0
 25 26  1  0
 26 27  1  6
 26 28  1  0
 28 29  1  0
 22 30  2  0
 25 30  1  0
  7 31  1  0
  4 32  1  0
 31 32  1  0
M  END
