piperidine-amides-23240-covalent
     RDKit          3D

 24 26  0  0  0  0  0  0  0  0999 V2000
    7.0450   -3.3690   19.3220 C   0  0  0  0  0  0  0  0  0  0  0  0
    6.4080   -4.2120   20.3430 C   0  0  0  0  0  0  0  0  0  0  0  0
    5.3820   -4.8420   19.9840 O   0  0  0  0  0  0  0  0  0  0  0  0
    6.9610   -4.3500   21.6420 N   0  0  0  0  0  0  0  0  0  0  0  0
    6.5770   -5.4640   22.4300 C   0  0  0  0  0  0  0  0  0  0  0  0
    5.8590   -5.0380   23.6120 C   0  0  0  0  0  0  0  0  0  0  0  0
    5.8360   -3.5630   23.7340 C   0  0  0  0  0  0  0  0  0  0  0  0
    5.0650   -3.0780   24.9410 C   0  0  0  0  0  0  0  0  0  0  0  0
    3.9890   -2.4960   24.7560 O   0  0  0  0  0  0  0  0  0  0  0  0
    5.4600   -3.2440   26.2690 N   0  0  0  0  0  0  0  0  0  0  0  0
    4.9190   -2.6270   27.4270 C   0  0  0  0  0  0  0  0  0  0  0  0
    5.0610   -3.2500   28.7480 C   0  0  0  0  0  0  0  0  0  0  0  0
    5.2470   -4.7580   28.5600 C   0  0  0  0  0  0  0  0  0  0  0  0
    6.2510   -5.0760   27.6980 C   0  0  0  0  0  0  0  0  0  0  0  0
    7.1020   -6.1570   28.0750 C   0  0  0  0  0  0  0  0  0  0  0  0
    6.5980   -6.7160   29.3740 C   0  0  0  0  0  0  0  0  0  0  0  0
    6.2790   -7.9930   29.5770 N   0  0  0  0  0  0  0  0  0  0  0  0
    6.4080   -5.7550   30.3420 O   0  0  0  0  0  0  0  0  0  0  0  0
    8.2290   -6.4180   27.0700 C   0  0  0  0  0  0  0  0  0  0  0  0
    8.4570   -5.6980   25.7810 C   0  0  0  0  0  0  0  0  0  0  0  0
    7.4780   -4.5900   25.4680 C   0  0  0  0  0  0  0  0  0  0  0  0
    6.3730   -4.2750   26.4590 C   0  0  0  0  0  0  0  0  0  0  0  0
    7.2040   -2.9640   23.5590 C   0  0  0  0  0  0  0  0  0  0  0  0
    7.6940   -3.2510   22.2690 C   0  0  0  0  0  0  0  0  0  0  0  0
  1  2  1  0
  2  3  2  0
  2  4  1  0
  4  5  1  0
  5  6  1  0
  6  7  1  0
  7  8  1  0
  8  9  2  0
  8 10  1  0
 10 11  1  0
 11 12  1  0
 12 13  1  0
 13 14  1  0
 14 15  2  0
 15 16  1  0
 16 17  1  0
 16 18  2  0
 15 19  1  0
 19 20  2  0
 20 21  1  0
 10 22  1  0
 14 22  1  0
 21 22  2  0
  7 23  1  0
  4 24  1  0
 23 24  1  0
M  END
