piperidine-amides-1225-covalent
     RDKit          3D

 23 24  0  0  0  0  0  0  0  0999 V2000
    7.1140   -3.2710   19.2370 C   0  0  0  0  0  0  0  0  0  0  0  0
    6.3530   -4.0420   20.2600 C   0  0  0  0  0  0  0  0  0  0  0  0
    5.3120   -4.6310   19.9170 O   0  0  0  0  0  0  0  0  0  0  0  0
    6.8580   -4.1230   21.5760 N   0  0  0  0  0  0  0  0  0  0  0  0
    7.7590   -3.1250   22.1220 C   0  0  0  0  0  0  0  0  0  0  0  0
    7.5180   -3.0310   23.6290 C   0  0  0  0  0  0  0  0  0  0  0  0
    6.1500   -3.5580   23.8620 C   0  0  0  0  0  0  0  0  0  0  0  0
    5.5860   -3.2090   25.1800 C   0  0  0  0  0  0  0  0  0  0  0  0
    4.3560   -3.1210   25.2400 O   0  0  0  0  0  0  0  0  0  0  0  0
    6.4180   -2.9910   26.2750 N   0  0  0  0  0  0  0  0  0  0  0  0
    6.0660   -3.2110   27.6260 C   0  0  0  0  0  0  0  0  0  0  0  0
    6.8620   -3.8430   28.5320 C   0  0  0  0  0  0  0  0  0  0  0  0
    7.1530   -5.0870   29.2060 O   0  0  0  0  0  0  0  0  0  0  0  0
    5.8570   -4.7310   27.9720 N   0  0  0  0  0  0  0  0  0  0  0  0
    5.1660   -5.6390   28.7640 C   0  0  0  0  0  0  0  0  0  0  0  0
    5.9560   -6.6200   29.2890 C   0  0  0  0  0  0  0  0  0  0  0  0
    5.3560   -7.6330   30.1560 C   0  0  0  0  0  0  0  0  0  0  0  0
    3.8610   -7.6380   30.4930 C   0  0  0  0  0  0  0  0  0  0  0  0
    3.1260   -6.4720   29.8160 C   0  0  0  0  0  0  0  0  0  0  0  0
    1.7900   -6.3460   30.0250 F   0  0  0  0  0  0  0  0  0  0  0  0
    3.8180   -5.5750   29.0190 C   0  0  0  0  0  0  0  0  0  0  0  0
    6.0410   -5.0220   23.6450 C   0  0  0  0  0  0  0  0  0  0  0  0
    6.6590   -5.3640   22.3040 C   0  0  0  0  0  0  0  0  0  0  0  0
  1  2  1  0
  2  3  2  0
  2  4  1  0
  4  5  1  0
  5  6  1  0
  6  7  1  0
  7  8  1  0
  8  9  2  0
  8 10  1  0
 10 11  1  0
 11 12  1  0
 12 13  2  0
 12 14  1  0
 14 15  1  0
 15 16  2  0
 16 17  1  0
 17 18  2  0
 18 19  1  0
 19 20  1  0
 15 21  1  0
 19 21  2  0
  7 22  1  0
  4 23  1  0
 22 23  1  0
M  END
