piperidine-amides-29648-covalent
     RDKit          3D

 27 29  0  0  0  0  0  0  0  0999 V2000
    7.0450   -3.3770   19.3430 C   0  0  0  0  0  0  0  0  0  0  0  0
    6.3880   -4.2210   20.3310 C   0  0  0  0  0  0  0  0  0  0  0  0
    5.4050   -4.8860   19.9970 O   0  0  0  0  0  0  0  0  0  0  0  0
    6.9140   -4.3160   21.6690 N   0  0  0  0  0  0  0  0  0  0  0  0
    7.7690   -3.2630   22.1940 C   0  0  0  0  0  0  0  0  0  0  0  0
    7.5210   -3.0460   23.6580 C   0  0  0  0  0  0  0  0  0  0  0  0
    6.1920   -3.7000   23.9360 C   0  0  0  0  0  0  0  0  0  0  0  0
    5.6220   -3.2730   25.2480 C   0  0  0  0  0  0  0  0  0  0  0  0
    4.7380   -2.4030   25.2970 O   0  0  0  0  0  0  0  0  0  0  0  0
    6.0270   -3.8350   26.4730 N   0  0  0  0  0  0  0  0  0  0  0  0
    6.3840   -2.8600   27.4660 C   0  0  0  0  0  0  0  0  0  0  0  0
    6.6690   -3.5400   28.7870 C   0  0  0  0  0  0  0  0  0  0  0  0
    5.8490   -4.5280   29.2300 C   0  0  0  0  0  0  0  0  0  0  0  0
    4.6010   -4.0670   29.6750 C   0  0  0  0  0  0  0  0  0  0  0  0
    3.6750   -5.0150   30.0630 C   0  0  0  0  0  0  0  0  0  0  0  0
    3.2440   -5.0650   31.4630 C   0  0  0  0  0  0  0  0  0  0  0  0
    2.3360   -5.9150   32.0680 C   0  0  0  0  0  0  0  0  0  0  0  0
    1.6680   -6.9020   31.3820 C   0  0  0  0  0  0  0  0  0  0  0  0
    0.7420   -7.7920   31.9220 C   0  0  0  0  0  0  0  0  0  0  0  0
   -0.6070   -7.9500   31.3600 C   0  0  0  0  0  0  0  0  0  0  0  0
    1.5840   -9.0010   31.5250 C   0  0  0  0  0  0  0  0  0  0  0  0
    1.9760   -7.0100   29.9480 C   0  0  0  0  0  0  0  0  0  0  0  0
    2.9610   -6.0680   29.3540 C   0  0  0  0  0  0  0  0  0  0  0  0
    5.7240   -5.4430   28.2480 C   0  0  0  0  0  0  0  0  0  0  0  0
    5.1550   -4.8640   26.9840 C   0  0  0  0  0  0  0  0  0  0  0  0
    6.2000   -5.1730   23.7500 C   0  0  0  0  0  0  0  0  0  0  0  0
    6.6250   -5.4860   22.4570 C   0  0  0  0  0  0  0  0  0  0  0  0
  1  2  1  0
  2  3  2  0
  2  4  1  0
  4  5  1  0
  5  6  1  0
  6  7  1  0
  7  8  1  0
  8  9  2  0
  8 10  1  0
 10 11  1  0
 11 12  1  0
 12 13  1  0
 13 14  1  0
 14 15  1  0
 15 16  2  0
 16 17  1  0
 17 18  2  0
 18 19  1  0
 19 20  1  0
 19 21  1  0
 18 22  1  0
 15 23  1  0
 22 23  2  0
 13 24  1  0
 10 25  1  0
 24 25  1  0
  7 26  1  0
  4 27  1  0
 26 27  1  0
M  END
