piperidine-amides-4117-covalent
     RDKit          3D

 27 29  0  0  0  0  0  0  0  0999 V2000
    7.0730   -3.3390   19.2850 C   0  0  0  0  0  0  0  0  0  0  0  0
    6.4050   -4.1580   20.3140 C   0  0  0  0  0  0  0  0  0  0  0  0
    5.3550   -4.7460   19.9570 O   0  0  0  0  0  0  0  0  0  0  0  0
    6.9440   -4.3300   21.6170 N   0  0  0  0  0  0  0  0  0  0  0  0
    7.6670   -3.2450   22.2000 C   0  0  0  0  0  0  0  0  0  0  0  0
    7.3110   -2.9950   23.5850 C   0  0  0  0  0  0  0  0  0  0  0  0
    6.0690   -3.6800   23.9860 C   0  0  0  0  0  0  0  0  0  0  0  0
    5.5640   -3.2380   25.3260 C   0  0  0  0  0  0  0  0  0  0  0  0
    4.3410   -3.3110   25.5470 O   0  0  0  0  0  0  0  0  0  0  0  0
    6.3970   -2.7440   26.3430 N   0  0  0  0  0  0  0  0  0  0  0  0
    6.3370   -1.4490   26.9290 C   0  0  0  0  0  0  0  0  0  0  0  0
    5.9140   -0.2880   26.1680 C   0  0  0  0  0  0  0  0  0  0  0  0
    5.8740    1.0700   26.8890 C   0  0  0  0  0  0  0  0  0  0  0  0
    5.4490    2.0620   26.0270 O   0  0  0  0  0  0  0  0  0  0  0  0
    4.4680    1.5510   25.1800 C   0  0  0  0  0  0  0  0  0  0  0  0
    3.3250    2.5620   25.1300 C   0  0  0  0  0  0  0  0  0  0  0  0
    3.3350    3.2140   26.4830 C   0  0  0  0  0  0  0  0  0  0  0  0
    2.1920    4.2740   26.5340 C   0  0  0  0  0  0  0  0  0  0  0  0
    1.2260    4.5910   25.3960 C   0  0  0  0  0  0  0  0  0  0  0  0
    1.3490    3.8410   24.0920 C   0  0  0  0  0  0  0  0  0  0  0  0
    2.4300    2.7970   23.9560 C   0  0  0  0  0  0  0  0  0  0  0  0
    6.2400    1.1290   28.2100 C   0  0  0  0  0  0  0  0  0  0  0  0
    6.6300   -0.0420   28.8460 C   0  0  0  0  0  0  0  0  0  0  0  0
    6.6720   -1.2720   28.2300 C   0  0  0  0  0  0  0  0  0  0  0  0
    7.0920   -2.4440   29.0110 C   0  0  0  0  0  0  0  0  0  0  0  0
    6.2070   -5.1680   23.8200 C   0  0  0  0  0  0  0  0  0  0  0  0
    6.5730   -5.4940   22.3760 C   0  0  0  0  0  0  0  0  0  0  0  0
  1  2  1  0
  2  3  2  0
  2  4  1  0
  4  5  1  0
  5  6  1  0
  6  7  1  0
  7  8  1  0
  8  9  2  0
  8 10  1  0
 10 11  1  0
 11 12  2  0
 12 13  1  0
 13 14  1  0
 14 15  1  0
 15 16  1  0
 16 17  2  0
 17 18  1  0
 18 19  2  0
 19 20  1  0
 16 21  1  0
 20 21  2  0
 13 22  2  0
 22 23  1  0
 11 24  1  0
 23 24  2  0
 24 25  1  0
  7 26  1  0
  4 27  1  0
 26 27  1  0
M  END
