piperidine-amides-25508-covalent
     RDKit          3D

 23 25  0  0  0  0  0  0  0  0999 V2000
    6.9660   -3.3650   19.4070 C   0  0  0  0  0  0  0  0  0  0  0  0
    6.3710   -4.2830   20.4190 C   0  0  0  0  0  0  0  0  0  0  0  0
    5.4320   -4.9680   20.0080 O   0  0  0  0  0  0  0  0  0  0  0  0
    6.8620   -4.3830   21.7420 N   0  0  0  0  0  0  0  0  0  0  0  0
    6.5720   -5.5360   22.5740 C   0  0  0  0  0  0  0  0  0  0  0  0
    6.1670   -5.1240   23.9840 C   0  0  0  0  0  0  0  0  0  0  0  0
    6.2870   -3.6030   24.1520 C   0  0  0  0  0  0  0  0  0  0  0  0
    6.0470   -3.1380   25.5550 C   0  0  0  0  0  0  0  0  0  0  0  0
    6.1300   -1.9330   25.7680 O   0  0  0  0  0  0  0  0  0  0  0  0
    5.6630   -3.9540   26.6450 N   0  0  0  0  0  0  0  0  0  0  0  0
    6.3300   -3.8540   27.9150 C   0  0  0  0  0  0  0  0  0  0  0  0
    6.3450   -5.2580   28.5060 C   0  0  0  0  0  0  0  0  0  0  0  0
    4.9660   -5.7590   28.3220 N   0  0  0  0  0  0  0  0  0  0  0  0
    4.5140   -6.3690   29.5890 C   0  0  0  0  0  0  0  0  0  0  0  0
    3.4420   -5.6610   30.1060 C   0  0  0  0  0  0  0  0  0  0  0  0
    2.3790   -6.9600   29.7810 S   0  0  0  0  0  0  0  0  0  0  0  0
    1.9040   -7.6300   31.0330 O   0  0  0  0  0  0  0  0  0  0  0  0
    1.3260   -6.6110   28.7660 O   0  0  0  0  0  0  0  0  0  0  0  0
    3.7880   -7.6600   29.1960 C   0  0  0  0  0  0  0  0  0  0  0  0
    4.1730   -4.5210   28.3000 C   0  0  0  0  0  0  0  0  0  0  0  0
    4.3040   -3.9610   26.9230 C   0  0  0  0  0  0  0  0  0  0  0  0
    7.5620   -3.0610   23.6550 C   0  0  0  0  0  0  0  0  0  0  0  0
    7.7720   -3.3720   22.2210 C   0  0  0  0  0  0  0  0  0  0  0  0
  1  2  1  0
  2  3  2  0
  2  4  1  0
  4  5  1  0
  5  6  1  0
  6  7  1  0
  7  8  1  0
  8  9  2  0
  8 10  1  0
 10 11  1  0
 11 12  1  0
 12 13  1  0
 13 14  1  0
 14 15  1  0
 16 15  1  0
 16 17  2  0
 16 18  2  0
 14 19  1  0
 16 19  1  0
 13 20  1  0
 10 21  1  0
 20 21  1  0
  7 22  1  0
  4 23  1  0
 22 23  1  0
M  END
