piperidine-amides-31879-covalent
     RDKit          3D

 28 30  0  0  0  0  0  0  0  0999 V2000
    7.1310   -3.3370   19.4500 C   0  0  0  0  0  0  0  0  0  0  0  0
    6.4360   -4.1670   20.4090 C   0  0  0  0  0  0  0  0  0  0  0  0
    5.4460   -4.8600   19.9950 O   0  0  0  0  0  0  0  0  0  0  0  0
    6.8440   -4.2570   21.7610 N   0  0  0  0  0  0  0  0  0  0  0  0
    7.7920   -3.1780   22.2140 C   0  0  0  0  0  0  0  0  0  0  0  0
    7.4960   -2.9740   23.7550 C   0  0  0  0  0  0  0  0  0  0  0  0
    6.1750   -3.6350   23.9590 C   0  0  0  0  0  0  0  0  0  0  0  0
    5.1700   -2.9570   24.9890 C   0  0  0  0  0  0  0  0  0  0  0  0
    4.0810   -2.8990   24.4480 O   0  0  0  0  0  0  0  0  0  0  0  0
    5.6720   -2.6280   26.1180 N   0  0  0  0  0  0  0  0  0  0  0  0
    6.0020   -1.7650   27.1570 C   0  0  0  0  0  0  0  0  0  0  0  0
    7.0710   -1.4870   28.0180 C   0  0  0  0  0  0  0  0  0  0  0  0
    6.7060   -0.6690   29.1330 C   0  0  0  0  0  0  0  0  0  0  0  0
    5.6770    0.3080   28.7830 C   0  0  0  0  0  0  0  0  0  0  0  0
    5.6540    1.3040   29.9570 C   0  0  0  0  0  0  0  0  0  0  0  0
    6.7910    1.2630   29.2360 C   0  0  0  0  0  0  0  0  0  0  0  0
    5.4800    0.7020   27.3750 C   0  0  0  0  0  0  0  0  0  0  0  0
    5.8590   -0.4550   26.4580 C   0  0  0  0  0  0  0  0  0  0  0  0
    5.6460   -3.8020   26.9520 C   0  0  0  0  0  0  0  0  0  0  0  0
    4.3680   -4.2470   27.1560 C   0  0  0  0  0  0  0  0  0  0  0  0
    3.5590   -3.5490   28.0070 C   0  0  0  0  0  0  0  0  0  0  0  0
    3.9730   -3.3410   29.2850 C   0  0  0  0  0  0  0  0  0  0  0  0
    3.8030   -4.4380   30.1050 C   0  0  0  0  0  0  0  0  0  0  0  0
    3.7110   -2.0850   29.7920 C   0  0  0  0  0  0  0  0  0  0  0  0
    5.4520   -3.5280   29.4990 C   0  0  0  0  0  0  0  0  0  0  0  0
    6.1750   -3.7140   28.2130 C   0  0  0  0  0  0  0  0  0  0  0  0
    6.1750   -5.1370   23.8650 C   0  0  0  0  0  0  0  0  0  0  0  0
    6.8010   -5.4870   22.5150 C   0  0  0  0  0  0  0  0  0  0  0  0
  1  2  1  0
  2  3  2  0
  2  4  1  0
  4  5  1  0
  5  6  1  0
  6  7  1  0
  7  8  1  0
  8  9  2  0
  8 10  1  0
 10 11  1  0
 11 12  1  0
 12 13  1  0
 13 14  1  0
 14 15  1  0
 14 16  1  0
 14 17  1  0
 11 18  1  0
 17 18  1  0
 10 19  1  0
 19 20  1  0
 20 21  1  0
 21 22  1  0
 22 23  1  0
 22 24  1  0
 22 25  1  0
 19 26  1  0
 25 26  1  0
  7 27  1  0
  4 28  1  0
 27 28  1  0
M  END
