piperidine-amides-4772-covalent
     RDKit          3D

 24 25  0  0  0  0  0  0  0  0999 V2000
    7.1080   -3.2350   19.1810 C   0  0  0  0  0  0  0  0  0  0  0  0
    6.3190   -3.9710   20.2000 C   0  0  0  0  0  0  0  0  0  0  0  0
    5.2360   -4.4610   19.8330 O   0  0  0  0  0  0  0  0  0  0  0  0
    6.7930   -4.1420   21.5030 N   0  0  0  0  0  0  0  0  0  0  0  0
    6.4130   -5.2960   22.2500 C   0  0  0  0  0  0  0  0  0  0  0  0
    5.9920   -5.0080   23.6260 C   0  0  0  0  0  0  0  0  0  0  0  0
    6.7710   -3.9330   24.2820 C   0  0  0  0  0  0  0  0  0  0  0  0
    6.1380   -3.4960   25.5490 C   0  0  0  0  0  0  0  0  0  0  0  0
    4.9130   -3.2340   25.5480 O   0  0  0  0  0  0  0  0  0  0  0  0
    6.9080   -3.3640   26.7280 N   0  0  0  0  0  0  0  0  0  0  0  0
    7.5690   -4.5070   27.4240 C   0  0  1  0  0  0  0  0  0  0  0  0
    6.5830   -5.3420   28.1580 C   0  0  0  0  0  0  0  0  0  0  0  0
    8.3350   -5.3860   26.5250 C   0  0  0  0  0  0  0  0  0  0  0  0
    9.2350   -5.8530   25.7680 O   0  0  0  0  0  0  0  0  0  0  0  0
    9.3100   -4.3130   26.4950 N   0  0  0  0  0  0  0  0  0  0  0  0
   10.6400   -4.4370   26.0170 C   0  0  0  0  0  0  0  0  0  0  0  0
   11.2350   -3.3790   25.3460 C   0  0  0  0  0  0  0  0  0  0  0  0
   12.5930   -3.2350   25.4340 C   0  0  0  0  0  0  0  0  0  0  0  0
   13.2620   -2.2270   24.8020 C   0  0  0  0  0  0  0  0  0  0  0  0
   12.6270   -1.2900   24.0380 C   0  0  0  0  0  0  0  0  0  0  0  0
   11.2430   -1.3850   23.9140 C   0  0  0  0  0  0  0  0  0  0  0  0
   10.5330   -2.4760   24.6000 C   0  0  0  0  0  0  0  0  0  0  0  0
    6.9900   -2.7530   23.4080 C   0  0  0  0  0  0  0  0  0  0  0  0
    7.6470   -3.1450   22.1220 C   0  0  0  0  0  0  0  0  0  0  0  0
  1  2  1  0
  2  3  2  0
  2  4  1  0
  4  5  1  0
  5  6  1  0
  6  7  1  0
  7  8  1  0
  8  9  2  0
  8 10  1  0
 10 11  1  0
 11 12  1  6
 11 13  1  0
 13 14  2  0
 13 15  1  0
 15 16  1  0
 16 17  1  0
 17 18  2  0
 18 19  1  0
 19 20  2  0
 20 21  1  0
 17 22  1  0
 21 22  2  0
  7 23  1  0
  4 24  1  0
 23 24  1  0
M  END
