piperidine-amides-6445-covalent
     RDKit          3D

 20 21  0  0  0  0  0  0  0  0999 V2000
    7.0550   -3.2730   19.2560 C   0  0  0  0  0  0  0  0  0  0  0  0
    6.3180   -4.0550   20.2580 C   0  0  0  0  0  0  0  0  0  0  0  0
    5.2920   -4.6830   19.9290 O   0  0  0  0  0  0  0  0  0  0  0  0
    6.7720   -4.1510   21.5810 N   0  0  0  0  0  0  0  0  0  0  0  0
    6.6170   -5.4090   22.2800 C   0  0  0  0  0  0  0  0  0  0  0  0
    6.0470   -5.1050   23.6740 C   0  0  0  0  0  0  0  0  0  0  0  0
    5.7560   -3.6230   23.7350 C   0  0  0  0  0  0  0  0  0  0  0  0
    5.0500   -3.2840   24.9920 C   0  0  0  0  0  0  0  0  0  0  0  0
    4.0280   -3.9320   25.2780 O   0  0  0  0  0  0  0  0  0  0  0  0
    5.5040   -2.2650   25.8450 N   0  0  0  0  0  0  0  0  0  0  0  0
    6.6360   -2.5570   26.6160 C   0  0  0  0  0  0  0  0  0  0  0  0
    6.9860   -1.3770   27.5070 C   0  0  0  0  0  0  0  0  0  0  0  0
    7.6070   -0.2080   27.1830 C   0  0  0  0  0  0  0  0  0  0  0  0
    7.8520    0.7570   28.1380 C   0  0  0  0  0  0  0  0  0  0  0  0
    7.4990    0.6400   29.4930 C   0  0  0  0  0  0  0  0  0  0  0  0
    6.8800   -0.5040   29.8510 N   0  0  0  0  0  0  0  0  0  0  0  0
    6.5980   -1.5380   28.9210 C   0  0  0  0  0  0  0  0  0  0  0  0
    5.9620   -2.6770   29.3770 F   0  0  0  0  0  0  0  0  0  0  0  0
    7.0980   -2.9020   23.6080 C   0  0  0  0  0  0  0  0  0  0  0  0
    7.6200   -3.1550   22.2180 C   0  0  0  0  0  0  0  0  0  0  0  0
  1  2  1  0
  2  3  2  0
  2  4  1  0
  4  5  1  0
  5  6  1  0
  6  7  1  0
  7  8  1  0
  8  9  2  0
  8 10  1  0
 10 11  1  0
 11 12  1  0
 12 13  2  0
 13 14  1  0
 14 15  2  0
 15 16  1  0
 12 17  1  0
 16 17  2  0
 17 18  1  0
  7 19  1  0
  4 20  1  0
 19 20  1  0
M  END
