piperidine-amides-32413-covalent
     RDKit          3D

 26 28  0  0  0  0  0  0  0  0999 V2000
    7.1160   -3.3010   19.2730 C   0  0  0  0  0  0  0  0  0  0  0  0
    6.3930   -4.1120   20.2920 C   0  0  0  0  0  0  0  0  0  0  0  0
    5.3710   -4.7380   19.9530 O   0  0  0  0  0  0  0  0  0  0  0  0
    6.9120   -4.1920   21.6040 N   0  0  0  0  0  0  0  0  0  0  0  0
    6.7700   -5.3850   22.4090 C   0  0  0  0  0  0  0  0  0  0  0  0
    6.1530   -4.9790   23.7520 C   0  0  0  0  0  0  0  0  0  0  0  0
    6.3330   -3.5020   23.9150 C   0  0  0  0  0  0  0  0  0  0  0  0
    5.9470   -2.9300   25.2330 C   0  0  0  0  0  0  0  0  0  0  0  0
    5.3950   -1.8310   25.2190 O   0  0  0  0  0  0  0  0  0  0  0  0
    6.1670   -3.6520   26.3910 N   0  0  0  0  0  0  0  0  0  0  0  0
    6.0430   -3.2120   27.7040 C   0  0  0  0  0  0  0  0  0  0  0  0
    5.4430   -4.2060   28.3850 C   0  0  2  0  0  0  0  0  0  0  0  0
    6.1490   -4.9120   29.3410 C   0  0  0  0  0  0  0  0  0  0  0  0
    5.3980   -5.7860   30.1330 C   0  0  0  0  0  0  0  0  0  0  0  0
    4.9020   -7.0620   29.5720 C   0  0  0  0  0  0  0  0  0  0  0  0
    5.0680   -6.7900   27.8480 S   0  0  0  0  0  0  0  0  0  0  0  0
    6.5010   -7.0680   27.5180 O   0  0  0  0  0  0  0  0  0  0  0  0
    4.1140   -7.5550   26.9910 O   0  0  0  0  0  0  0  0  0  0  0  0
    4.9670   -5.1190   27.4790 C   0  0  1  0  0  0  0  0  0  0  0  0
    3.4400   -4.9480   27.4390 C   0  0  0  0  0  0  0  0  0  0  0  0
    2.7470   -5.3160   28.5440 F   0  0  0  0  0  0  0  0  0  0  0  0
    2.8930   -5.6100   26.3480 F   0  0  0  0  0  0  0  0  0  0  0  0
    3.1370   -3.6210   27.2330 F   0  0  0  0  0  0  0  0  0  0  0  0
    5.6370   -4.9390   26.2480 C   0  0  0  0  0  0  0  0  0  0  0  0
    7.6880   -3.0380   23.5590 C   0  0  0  0  0  0  0  0  0  0  0  0
    7.8100   -3.1380   22.0590 C   0  0  0  0  0  0  0  0  0  0  0  0
  1  2  1  0
  2  3  2  0
  2  4  1  0
  4  5  1  0
  5  6  1  0
  6  7  1  0
  7  8  1  0
  8  9  2  0
  8 10  1  0
 10 11  1  0
 12 11  1  6
 12 13  1  0
 13 14  1  0
 14 15  1  0
 16 15  1  0
 16 17  2  0
 16 18  2  0
 12 19  1  0
 16 19  1  0
 19 20  1  6
 20 21  1  0
 20 22  1  0
 20 23  1  0
 10 24  1  0
 19 24  1  0
  7 25  1  0
  4 26  1  0
 25 26  1  0
M  END
