piperidine-amides-14212-covalent
     RDKit          3D

 24 25  0  0  0  0  0  0  0  0999 V2000
    7.0660   -3.3350   19.2910 C   0  0  0  0  0  0  0  0  0  0  0  0
    6.3750   -4.1790   20.3050 C   0  0  0  0  0  0  0  0  0  0  0  0
    5.3570   -4.8070   19.9690 O   0  0  0  0  0  0  0  0  0  0  0  0
    6.9170   -4.2820   21.6050 N   0  0  0  0  0  0  0  0  0  0  0  0
    7.7590   -3.2450   22.1600 C   0  0  0  0  0  0  0  0  0  0  0  0
    6.9840   -2.6320   23.3160 C   0  0  0  0  0  0  0  0  0  0  0  0
    6.5560   -3.7750   24.1590 C   0  0  0  0  0  0  0  0  0  0  0  0
    5.7900   -3.3260   25.3420 C   0  0  0  0  0  0  0  0  0  0  0  0
    4.5620   -3.4780   25.3030 O   0  0  0  0  0  0  0  0  0  0  0  0
    6.4600   -2.7540   26.4270 N   0  0  0  0  0  0  0  0  0  0  0  0
    6.3030   -1.4360   26.9380 C   0  0  0  0  0  0  0  0  0  0  0  0
    5.8190   -0.3320   26.2380 C   0  0  0  0  0  0  0  0  0  0  0  0
    5.6690    0.9800   26.7760 C   0  0  0  0  0  0  0  0  0  0  0  0
    6.0050    1.2570   28.0720 C   0  0  0  0  0  0  0  0  0  0  0  0
    5.8540    2.8410   28.8020 Cl  0  0  0  0  0  0  0  0  0  0  0  0
    6.5090    0.1240   28.8160 C   0  0  0  0  0  0  0  0  0  0  0  0
    6.9780    0.0910   30.2680 C   0  0  0  0  0  0  0  0  0  0  0  0
    8.2990    0.4240   30.4650 O   0  0  0  0  0  0  0  0  0  0  0  0
    6.2080   -0.2280   31.3710 O   0  0  0  0  0  0  0  0  0  0  0  0
    6.5900    0.2220   32.6770 C   0  0  0  0  0  0  0  0  0  0  0  0
    6.6540   -1.2130   28.2480 C   0  0  0  0  0  0  0  0  0  0  0  0
    7.1640   -2.2690   29.0910 C   0  0  0  0  0  0  0  0  0  0  0  0
    5.7800   -4.8420   23.4440 C   0  0  0  0  0  0  0  0  0  0  0  0
    6.5750   -5.3820   22.4630 C   0  0  0  0  0  0  0  0  0  0  0  0
  1  2  1  0
  2  3  2  0
  2  4  1  0
  4  5  1  0
  5  6  1  0
  6  7  1  0
  7  8  1  0
  8  9  2  0
  8 10  1  0
 10 11  1  0
 11 12  2  0
 12 13  1  0
 13 14  2  0
 14 15  1  0
 14 16  1  0
 16 17  1  0
 17 18  2  0
 17 19  1  0
 19 20  1  0
 11 21  1  0
 16 21  2  0
 21 22  1  0
  7 23  1  0
  4 24  1  0
 23 24  1  0
M  END
