piperidine-amides-21648-covalent
     RDKit          3D

 23 25  0  0  0  0  0  0  0  0999 V2000
    7.0570   -3.3810   19.3650 C   0  0  0  0  0  0  0  0  0  0  0  0
    6.3640   -4.1900   20.3670 C   0  0  0  0  0  0  0  0  0  0  0  0
    5.3510   -4.8270   19.9730 O   0  0  0  0  0  0  0  0  0  0  0  0
    6.8550   -4.2690   21.6730 N   0  0  0  0  0  0  0  0  0  0  0  0
    6.7270   -5.4760   22.4570 C   0  0  0  0  0  0  0  0  0  0  0  0
    6.1060   -5.0920   23.7680 C   0  0  0  0  0  0  0  0  0  0  0  0
    6.1830   -3.6020   23.9370 C   0  0  0  0  0  0  0  0  0  0  0  0
    5.6320   -3.1410   25.2310 C   0  0  0  0  0  0  0  0  0  0  0  0
    4.6920   -2.3230   25.2000 O   0  0  0  0  0  0  0  0  0  0  0  0
    6.0680   -3.5750   26.4860 N   0  0  0  0  0  0  0  0  0  0  0  0
    6.5010   -2.6820   27.5180 C   0  0  0  0  0  0  0  0  0  0  0  0
    6.5380   -3.6460   28.6910 C   0  0  0  0  0  0  0  0  0  0  0  0
    5.6760   -4.6730   28.4860 C   0  0  2  0  0  0  0  0  0  0  0  0
    5.8270   -5.9560   28.9590 C   0  0  0  0  0  0  0  0  0  0  0  0
    4.7330   -6.7030   28.5320 C   0  0  0  0  0  0  0  0  0  0  0  0
    3.7030   -7.2290   29.2790 C   0  0  0  0  0  0  0  0  0  0  0  0
    2.8030   -7.8910   28.4630 N   0  0  0  0  0  0  0  0  0  0  0  0
    3.2910   -7.7760   27.1980 N   0  0  0  0  0  0  0  0  0  0  0  0
    2.5870   -8.3660   26.0900 C   0  0  0  0  0  0  0  0  0  0  0  0
    4.4770   -7.0440   27.2600 C   0  0  0  0  0  0  0  0  0  0  0  0
    5.3870   -4.6200   27.1570 C   0  0  0  0  0  0  0  0  0  0  0  0
    7.6090   -3.1240   23.6760 C   0  0  0  0  0  0  0  0  0  0  0  0
    7.7270   -3.1880   22.1670 C   0  0  0  0  0  0  0  0  0  0  0  0
  1  2  1  0
  2  3  2  0
  2  4  1  0
  4  5  1  0
  5  6  1  0
  6  7  1  0
  7  8  1  0
  8  9  2  0
  8 10  1  0
 10 11  1  0
 11 12  1  0
 12 13  1  0
 13 14  1  6
 14 15  1  0
 15 16  1  0
 16 17  2  0
 17 18  1  0
 18 19  1  0
 15 20  2  0
 18 20  1  0
 10 21  1  0
 13 21  1  0
  7 22  1  0
  4 23  1  0
 22 23  1  0
M  END
