piperidine-amides-28067-covalent
     RDKit          3D

 25 28  0  0  0  0  0  0  0  0999 V2000
    7.0290   -3.3680   19.3640 C   0  0  0  0  0  0  0  0  0  0  0  0
    6.4150   -4.2300   20.3990 C   0  0  0  0  0  0  0  0  0  0  0  0
    5.4310   -4.9000   20.0060 O   0  0  0  0  0  0  0  0  0  0  0  0
    6.9340   -4.3280   21.7190 N   0  0  0  0  0  0  0  0  0  0  0  0
    6.6430   -5.4740   22.5220 C   0  0  0  0  0  0  0  0  0  0  0  0
    6.0080   -5.1470   23.8110 C   0  0  0  0  0  0  0  0  0  0  0  0
    5.8510   -3.6910   24.0220 C   0  0  0  0  0  0  0  0  0  0  0  0
    5.0240   -3.3610   25.2490 C   0  0  0  0  0  0  0  0  0  0  0  0
    3.8370   -3.6960   25.1700 O   0  0  0  0  0  0  0  0  0  0  0  0
    5.4280   -2.7180   26.4480 N   0  0  0  0  0  0  0  0  0  0  0  0
    6.6120   -3.1300   27.0900 C   0  0  0  0  0  0  0  0  0  0  0  0
    6.3090   -4.2440   28.0580 C   0  0  0  0  0  0  0  0  0  0  0  0
    5.0530   -4.1400   28.7020 N   0  0  0  0  0  0  0  0  0  0  0  0
    4.2100   -3.1010   28.3280 C   0  0  0  0  0  0  0  0  0  0  0  0
    3.1290   -3.2840   29.1170 N   0  0  0  0  0  0  0  0  0  0  0  0
    3.3020   -4.3690   29.9190 N   0  0  0  0  0  0  0  0  0  0  0  0
    4.5130   -4.9430   29.6810 C   0  0  0  0  0  0  0  0  0  0  0  0
    5.0290   -6.0440   30.2880 C   0  0  0  0  0  0  0  0  0  0  0  0
    5.8310   -6.9100   29.6970 C   0  0  0  0  0  0  0  0  0  0  0  0
    6.1690   -7.8890   30.5490 C   0  0  0  0  0  0  0  0  0  0  0  0
    5.6720   -7.8580   31.8440 C   0  0  0  0  0  0  0  0  0  0  0  0
    4.6930   -6.4610   31.9250 S   0  0  0  0  0  0  0  0  0  0  0  0
    4.5070   -2.1630   27.3630 C   0  0  0  0  0  0  0  0  0  0  0  0
    7.0900   -2.9230   23.7620 C   0  0  0  0  0  0  0  0  0  0  0  0
    7.6720   -3.2400   22.3900 C   0  0  0  0  0  0  0  0  0  0  0  0
  1  2  1  0
  2  3  2  0
  2  4  1  0
  4  5  1  0
  5  6  1  0
  6  7  1  0
  7  8  1  0
  8  9  2  0
  8 10  1  0
 10 11  1  0
 11 12  1  0
 12 13  1  0
 13 14  1  0
 14 15  2  0
 15 16  1  0
 13 17  1  0
 16 17  2  0
 17 18  1  0
 18 19  2  0
 19 20  1  0
 20 21  2  0
 18 22  1  0
 21 22  1  0
 10 23  1  0
 14 23  1  0
  7 24  1  0
  4 25  1  0
 24 25  1  0
M  END
