piperidine-amides-34840-covalent
     RDKit          3D

 31 34  0  0  0  0  0  0  0  0999 V2000
    7.0590   -3.3350   19.2850 C   0  0  0  0  0  0  0  0  0  0  0  0
    6.3860   -4.1760   20.3100 C   0  0  0  0  0  0  0  0  0  0  0  0
    5.3670   -4.7730   19.9630 O   0  0  0  0  0  0  0  0  0  0  0  0
    6.9390   -4.3000   21.5860 N   0  0  0  0  0  0  0  0  0  0  0  0
    7.7310   -3.2530   22.1720 C   0  0  0  0  0  0  0  0  0  0  0  0
    7.0380   -2.7470   23.3950 C   0  0  0  0  0  0  0  0  0  0  0  0
    6.6050   -3.9090   24.2990 C   0  0  0  0  0  0  0  0  0  0  0  0
    5.7940   -3.2860   25.3610 C   0  0  0  0  0  0  0  0  0  0  0  0
    4.6340   -2.9300   25.1010 O   0  0  0  0  0  0  0  0  0  0  0  0
    6.3050   -3.0940   26.6590 N   0  0  0  0  0  0  0  0  0  0  0  0
    6.2040   -4.2670   27.5220 C   0  0  0  0  0  0  0  0  0  0  0  0
    5.1290   -4.4480   28.3110 N   0  0  0  0  0  0  0  0  0  0  0  0
    5.0690   -5.5300   29.0780 C   0  0  0  0  0  0  0  0  0  0  0  0
    4.2900   -6.1780   29.9960 C   0  0  0  0  0  0  0  0  0  0  0  0
    6.0140   -6.5920   29.2130 C   0  0  0  0  0  0  0  0  0  0  0  0
    5.8580   -7.6720   30.0410 C   0  0  0  0  0  0  0  0  0  0  0  0
    7.1220   -6.4790   28.4480 N   0  0  0  0  0  0  0  0  0  0  0  0
    7.1590   -5.2710   27.6000 C   0  0  0  0  0  0  0  0  0  0  0  0
    8.6010   -5.2020   26.6270 Cl  0  0  0  0  0  0  0  0  0  0  0  0
    6.2200   -1.7490   27.1890 C   0  0  1  0  0  0  0  0  0  0  0  0
    6.0450   -0.5050   26.3020 C   0  0  0  0  0  0  0  0  0  0  0  0
    6.1160    0.6960   27.2340 C   0  0  0  0  0  0  0  0  0  0  0  0
    6.5960    0.3510   28.5950 C   0  0  0  0  0  0  0  0  0  0  0  0
    5.6850   -0.6150   29.1970 C   0  0  0  0  0  0  0  0  0  0  0  0
    4.9740   -0.4910   30.5010 C   0  0  0  0  0  0  0  0  0  0  0  0
    4.0330   -1.5470   30.9830 C   0  0  0  0  0  0  0  0  0  0  0  0
    3.8140   -2.6510   30.2140 C   0  0  0  0  0  0  0  0  0  0  0  0
    4.5210   -2.8130   28.8900 C   0  0  0  0  0  0  0  0  0  0  0  0
    5.4970   -1.7130   28.4130 C   0  0  0  0  0  0  0  0  0  0  0  0
    5.8030   -4.9170   23.4730 C   0  0  0  0  0  0  0  0  0  0  0  0
    6.5930   -5.3820   22.4700 C   0  0  0  0  0  0  0  0  0  0  0  0
  1  2  1  0
  2  3  2  0
  2  4  1  0
  4  5  1  0
  5  6  1  0
  6  7  1  0
  7  8  1  0
  8  9  2  0
  8 10  1  0
 10 11  1  0
 11 12  2  0
 12 13  1  0
 13 14  1  0
 13 15  2  0
 15 16  1  0
 15 17  1  0
 11 18  1  0
 17 18  2  0
 18 19  1  0
 20 10  1  6
 20 21  1  0
 21 22  1  0
 22 23  1  0
 23 24  1  0
 24 25  2  0
 25 26  1  0
 26 27  2  0
 27 28  1  0
 20 29  1  0
 24 29  1  0
 28 29  2  0
  7 30  1  0
  4 31  1  0
 30 31  1  0
M  END
