piperidine-amides-34976-covalent
     RDKit          3D

 28 31  0  0  0  0  0  0  0  0999 V2000
    6.9890   -3.3610   19.3500 C   0  0  0  0  0  0  0  0  0  0  0  0
    6.3200   -4.2450   20.3460 C   0  0  0  0  0  0  0  0  0  0  0  0
    5.3340   -4.8650   19.9690 O   0  0  0  0  0  0  0  0  0  0  0  0
    6.8210   -4.3830   21.6370 N   0  0  0  0  0  0  0  0  0  0  0  0
    6.7040   -5.6280   22.3630 C   0  0  0  0  0  0  0  0  0  0  0  0
    6.0850   -5.3610   23.7020 C   0  0  0  0  0  0  0  0  0  0  0  0
    6.0350   -3.8530   23.8870 C   0  0  0  0  0  0  0  0  0  0  0  0
    5.6140   -3.4590   25.2610 C   0  0  0  0  0  0  0  0  0  0  0  0
    4.6370   -2.7120   25.3560 O   0  0  0  0  0  0  0  0  0  0  0  0
    6.2480   -3.8720   26.4630 N   0  0  0  0  0  0  0  0  0  0  0  0
    7.0010   -5.1030   26.5060 C   0  0  0  0  0  0  0  0  0  0  0  0
    7.0710   -5.2690   27.9830 C   0  0  0  0  0  0  0  0  0  0  0  0
    6.4550   -4.2450   28.6220 C   0  0  0  0  0  0  0  0  0  0  0  0
    5.7180   -3.4890   27.7590 C   0  0  2  0  0  0  0  0  0  0  0  0
    4.3630   -3.6000   27.9650 C   0  0  0  0  0  0  0  0  0  0  0  0
    3.9800   -4.7850   28.3590 N   0  0  0  0  0  0  0  0  0  0  0  0
    2.5800   -4.4400   28.4480 C   0  0  0  0  0  0  0  0  0  0  0  0
    1.5270   -5.4140   28.8750 C   0  0  0  0  0  0  0  0  0  0  0  0
    2.1380   -6.1760   30.0420 C   0  0  0  0  0  0  0  0  0  0  0  0
    1.2320   -7.2150   30.6260 C   0  0  0  0  0  0  0  0  0  0  0  0
   -0.1270   -7.4280   30.0670 C   0  0  0  0  0  0  0  0  0  0  0  0
   -0.6250   -6.6090   28.9050 C   0  0  0  0  0  0  0  0  0  0  0  0
    0.2610   -5.5760   28.3160 C   0  0  0  0  0  0  0  0  0  0  0  0
   -0.2910   -4.4910   26.8390 Br  0  0  0  0  0  0  0  0  0  0  0  0
    2.2230   -3.1250   28.1170 N   0  0  0  0  0  0  0  0  0  0  0  0
    3.4060   -2.6100   27.8070 O   0  0  0  0  0  0  0  0  0  0  0  0
    7.3860   -3.2630   23.5820 C   0  0  0  0  0  0  0  0  0  0  0  0
    7.6020   -3.3030   22.2270 C   0  0  0  0  0  0  0  0  0  0  0  0
  1  2  1  0
  2  3  2  0
  2  4  1  0
  4  5  1  0
  5  6  1  0
  6  7  1  0
  7  8  1  0
  8  9  2  0
  8 10  1  0
 10 11  1  0
 11 12  1  0
 12 13  1  0
 10 14  1  0
 13 14  1  0
 14 15  1  6
 15 16  2  0
 16 17  1  0
 17 18  1  0
 18 19  2  0
 19 20  1  0
 20 21  2  0
 21 22  1  0
 18 23  1  0
 22 23  2  0
 23 24  1  0
 17 25  2  0
 15 26  1  0
 25 26  1  0
  7 27  1  0
  4 28  1  0
 27 28  1  0
M  END
