piperidine-amides-9079-covalent
     RDKit          3D

 21 22  0  0  0  0  0  0  0  0999 V2000
    7.0550   -3.3340   19.3500 C   0  0  0  0  0  0  0  0  0  0  0  0
    6.3580   -4.1570   20.3420 C   0  0  0  0  0  0  0  0  0  0  0  0
    5.3700   -4.8170   19.9770 O   0  0  0  0  0  0  0  0  0  0  0  0
    6.8000   -4.2630   21.6770 N   0  0  0  0  0  0  0  0  0  0  0  0
    6.6810   -5.4970   22.4210 C   0  0  0  0  0  0  0  0  0  0  0  0
    6.0920   -5.1260   23.7580 C   0  0  0  0  0  0  0  0  0  0  0  0
    6.0160   -3.6360   23.9370 C   0  0  0  0  0  0  0  0  0  0  0  0
    5.5980   -3.2370   25.3000 C   0  0  0  0  0  0  0  0  0  0  0  0
    4.3720   -3.2070   25.6050 O   0  0  0  0  0  0  0  0  0  0  0  0
    6.5160   -2.8780   26.3080 N   0  0  0  0  0  0  0  0  0  0  0  0
    6.4250   -1.5860   27.0170 C   0  0  0  0  0  0  0  0  0  0  0  0
    6.9940   -1.6360   28.3960 C   0  0  0  0  0  0  0  0  0  0  0  0
    7.0080   -0.4460   29.2920 C   0  0  0  0  0  0  0  0  0  0  0  0
    6.4320    0.8730   28.8230 C   0  0  0  0  0  0  0  0  0  0  0  0
    6.3960    2.1380   29.6530 C   0  0  0  0  0  0  0  0  0  0  0  0
    5.8850    0.7970   27.4090 C   0  0  0  0  0  0  0  0  0  0  0  0
    5.2950    1.7810   26.6660 C   0  0  0  0  0  0  0  0  0  0  0  0
    3.8970    1.7340   26.6320 C   0  0  0  0  0  0  0  0  0  0  0  0
    5.8730   -0.3990   26.5050 C   0  0  0  0  0  0  0  0  0  0  0  0
    7.2790   -2.9000   23.6070 C   0  0  0  0  0  0  0  0  0  0  0  0
    7.7130   -3.2600   22.2080 C   0  0  0  0  0  0  0  0  0  0  0  0
  1  2  1  0
  2  3  2  0
  2  4  1  0
  4  5  1  0
  5  6  1  0
  6  7  1  0
  7  8  1  0
  8  9  2  0
  8 10  1  0
 10 11  1  0
 11 12  2  0
 12 13  1  0
 13 14  2  0
 14 15  1  0
 14 16  1  0
 16 17  1  0
 17 18  1  0
 11 19  1  0
 16 19  2  0
  7 20  1  0
  4 21  1  0
 20 21  1  0
M  END
