piperidine-amides-13156-covalent
     RDKit          3D

 20 20  0  0  0  0  0  0  0  0999 V2000
    7.1050   -3.2480   19.1790 C   0  0  0  0  0  0  0  0  0  0  0  0
    6.3350   -3.9980   20.2010 C   0  0  0  0  0  0  0  0  0  0  0  0
    5.2460   -4.4840   19.8430 O   0  0  0  0  0  0  0  0  0  0  0  0
    6.8280   -4.2010   21.4950 N   0  0  0  0  0  0  0  0  0  0  0  0
    7.5730   -3.1590   22.1320 C   0  0  0  0  0  0  0  0  0  0  0  0
    7.1420   -2.8230   23.4940 C   0  0  0  0  0  0  0  0  0  0  0  0
    6.5230   -3.9400   24.2370 C   0  0  0  0  0  0  0  0  0  0  0  0
    5.7630   -3.4480   25.4190 C   0  0  0  0  0  0  0  0  0  0  0  0
    4.5300   -3.3060   25.2960 O   0  0  0  0  0  0  0  0  0  0  0  0
    6.4000   -3.1350   26.6440 N   0  0  0  0  0  0  0  0  0  0  0  0
    6.3330   -3.9790   27.8740 C   0  0  2  0  0  0  0  0  0  0  0  0
    5.9030   -5.3920   27.6300 C   0  0  0  0  0  0  0  0  0  0  0  0
    5.5770   -3.3060   28.9230 C   0  0  0  0  0  0  0  0  0  0  0  0
    4.6050   -3.9630   29.4250 O   0  0  0  0  0  0  0  0  0  0  0  0
    5.9010   -1.9760   29.3820 N   0  0  0  0  0  0  0  0  0  0  0  0
    7.1250   -1.3140   29.1080 C   0  0  0  0  0  0  0  0  0  0  0  0
    7.5960   -0.3740   29.9940 C   0  0  0  0  0  0  0  0  0  0  0  0
    8.8590    0.0920   29.7760 C   0  0  0  0  0  0  0  0  0  0  0  0
    5.7460   -4.9250   23.4270 C   0  0  0  0  0  0  0  0  0  0  0  0
    6.4260   -5.3090   22.3090 C   0  0  0  0  0  0  0  0  0  0  0  0
  1  2  1  0
  2  3  2  0
  2  4  1  0
  4  5  1  0
  5  6  1  0
  6  7  1  0
  7  8  1  0
  8  9  2  0
  8 10  1  0
 10 11  1  0
 11 12  1  6
 11 13  1  0
 13 14  2  0
 13 15  1  0
 15 16  1  0
 16 17  1  0
 17 18  1  0
  7 19  1  0
  4 20  1  0
 19 20  1  0
M  END
