piperidine-amides-2739-covalent
     RDKit          3D

 25 27  0  0  0  0  0  0  0  0999 V2000
    7.0860   -3.2880   19.1820 C   0  0  0  0  0  0  0  0  0  0  0  0
    6.3360   -4.0400   20.1820 C   0  0  0  0  0  0  0  0  0  0  0  0
    5.2610   -4.5520   19.8830 O   0  0  0  0  0  0  0  0  0  0  0  0
    6.8740   -4.2380   21.4960 N   0  0  0  0  0  0  0  0  0  0  0  0
    7.6370   -3.2010   22.1390 C   0  0  0  0  0  0  0  0  0  0  0  0
    6.8830   -2.6710   23.3220 C   0  0  0  0  0  0  0  0  0  0  0  0
    6.5510   -3.8470   24.2190 C   0  0  0  0  0  0  0  0  0  0  0  0
    5.6900   -3.3920   25.3430 C   0  0  0  0  0  0  0  0  0  0  0  0
    4.4460   -3.4440   25.2880 O   0  0  0  0  0  0  0  0  0  0  0  0
    6.3020   -2.8810   26.5120 N   0  0  0  0  0  0  0  0  0  0  0  0
    6.6070   -1.4720   26.5510 C   0  0  0  0  0  0  0  0  0  0  0  0
    5.6770   -0.7810   27.5240 C   0  0  0  0  0  0  0  0  0  0  0  0
    5.0700    0.3290   26.9660 C   0  0  0  0  0  0  0  0  0  0  0  0
    5.7980    1.5430   26.8590 C   0  0  0  0  0  0  0  0  0  0  0  0
    5.2180    2.6680   26.3100 C   0  0  0  0  0  0  0  0  0  0  0  0
    3.8590    2.6040   25.8400 C   0  0  0  0  0  0  0  0  0  0  0  0
    2.9820    4.1080   25.0700 Br  0  0  0  0  0  0  0  0  0  0  0  0
    3.1630    1.4460   25.9400 C   0  0  0  0  0  0  0  0  0  0  0  0
    3.7540    0.3290   26.4910 C   0  0  0  0  0  0  0  0  0  0  0  0
    4.7030   -1.6270   28.0940 C   0  0  0  0  0  0  0  0  0  0  0  0
    5.2060   -2.0340   29.4050 C   0  0  0  0  0  0  0  0  0  0  0  0
    6.1900   -1.1980   29.7820 C   0  0  0  0  0  0  0  0  0  0  0  0
    6.3610   -0.3900   28.6840 C   0  0  0  0  0  0  0  0  0  0  0  0
    5.7790   -4.9190   23.4770 C   0  0  0  0  0  0  0  0  0  0  0  0
    6.5530   -5.4130   22.2510 C   0  0  0  0  0  0  0  0  0  0  0  0
  1  2  1  0
  2  3  2  0
  2  4  1  0
  4  5  1  0
  5  6  1  0
  6  7  1  0
  7  8  1  0
  8  9  2  0
  8 10  1  0
 10 11  1  0
 12 11  1  0
 12 13  1  0
 13 14  2  0
 14 15  1  0
 15 16  2  0
 16 17  1  0
 16 18  1  0
 13 19  1  0
 18 19  2  0
 12 20  1  0
 20 21  1  0
 21 22  1  0
 12 23  1  0
 22 23  1  0
  7 24  1  0
  4 25  1  0
 24 25  1  0
M  END
