piperidine-amides-29157-covalent
     RDKit          3D

 25 27  0  0  0  0  0  0  0  0999 V2000
    6.9880   -3.3680   19.4290 C   0  0  0  0  0  0  0  0  0  0  0  0
    6.3730   -4.2490   20.4220 C   0  0  0  0  0  0  0  0  0  0  0  0
    5.4400   -4.9740   20.0160 O   0  0  0  0  0  0  0  0  0  0  0  0
    6.8400   -4.3070   21.7780 N   0  0  0  0  0  0  0  0  0  0  0  0
    6.5790   -5.5120   22.5300 C   0  0  0  0  0  0  0  0  0  0  0  0
    6.1150   -5.2060   23.9400 C   0  0  0  0  0  0  0  0  0  0  0  0
    5.8810   -3.7150   24.0220 C   0  0  0  0  0  0  0  0  0  0  0  0
    4.9750   -3.2770   25.1830 C   0  0  0  0  0  0  0  0  0  0  0  0
    3.8180   -3.1560   24.8220 O   0  0  0  0  0  0  0  0  0  0  0  0
    5.3280   -3.0260   26.5300 N   0  0  0  0  0  0  0  0  0  0  0  0
    6.6100   -3.0120   26.9610 C   0  0  0  0  0  0  0  0  0  0  0  0
    6.6000   -3.8870   28.0740 C   0  0  0  0  0  0  0  0  0  0  0  0
    5.3090   -3.9710   28.4980 C   0  0  0  0  0  0  0  0  0  0  0  0
    4.3940   -3.4510   27.5770 C   0  0  1  0  0  0  0  0  0  0  0  0
    3.7450   -2.3000   28.2940 C   0  0  0  0  0  0  0  0  0  0  0  0
    2.4890   -2.6110   29.1520 C   0  0  0  0  0  0  0  0  0  0  0  0
    1.3260   -3.2450   28.4470 C   0  0  0  0  0  0  0  0  0  0  0  0
    1.5160   -3.4830   27.0920 F   0  0  0  0  0  0  0  0  0  0  0  0
    0.1340   -3.5260   29.3120 C   0  0  0  0  0  0  0  0  0  0  0  0
    0.2590   -3.1310   30.7900 C   0  0  0  0  0  0  0  0  0  0  0  0
    1.3940   -2.5550   31.2880 C   0  0  0  0  0  0  0  0  0  0  0  0
    2.5020   -2.2870   30.5160 C   0  0  0  0  0  0  0  0  0  0  0  0
    3.9050   -1.5410   31.2600 Cl  0  0  0  0  0  0  0  0  0  0  0  0
    7.1390   -2.9490   23.7970 C   0  0  0  0  0  0  0  0  0  0  0  0
    7.6110   -3.2310   22.3870 C   0  0  0  0  0  0  0  0  0  0  0  0
  1  2  1  0
  2  3  2  0
  2  4  1  0
  4  5  1  0
  5  6  1  0
  6  7  1  0
  7  8  1  0
  8  9  2  0
  8 10  1  0
 10 11  1  0
 11 12  1  0
 12 13  1  0
 10 14  1  0
 13 14  1  0
 14 15  1  1
 15 16  1  0
 16 17  2  0
 17 18  1  0
 17 19  1  0
 19 20  2  0
 20 21  1  0
 16 22  1  0
 21 22  2  0
 22 23  1  0
  7 24  1  0
  4 25  1  0
 24 25  1  0
M  END
