piperidine-amides-7079-covalent
     RDKit          3D

 21 23  0  0  0  0  0  0  0  0999 V2000
    7.0990   -3.2910   19.2380 C   0  0  0  0  0  0  0  0  0  0  0  0
    6.3850   -4.0960   20.2380 C   0  0  0  0  0  0  0  0  0  0  0  0
    5.3270   -4.6890   19.9350 O   0  0  0  0  0  0  0  0  0  0  0  0
    6.9090   -4.2600   21.5210 N   0  0  0  0  0  0  0  0  0  0  0  0
    6.5510   -5.4160   22.2900 C   0  0  0  0  0  0  0  0  0  0  0  0
    5.7140   -4.8880   23.4570 C   0  0  0  0  0  0  0  0  0  0  0  0
    6.5370   -3.8050   24.1360 C   0  0  0  0  0  0  0  0  0  0  0  0
    5.7790   -3.2390   25.2640 C   0  0  0  0  0  0  0  0  0  0  0  0
    4.5310   -3.2770   25.2140 O   0  0  0  0  0  0  0  0  0  0  0  0
    6.4610   -2.6590   26.3590 N   0  0  0  0  0  0  0  0  0  0  0  0
    5.7220   -1.8340   27.2740 C   0  0  2  0  0  0  0  0  0  0  0  0
    6.6240   -0.9550   27.9890 C   0  0  0  0  0  0  0  0  0  0  0  0
    6.1840   -1.5390   29.0930 C   0  0  0  0  0  0  0  0  0  0  0  0
    5.2210   -2.4530   28.5540 C   0  0  0  0  0  0  0  0  0  0  0  0
    3.8730   -2.2390   28.8140 C   0  0  0  0  0  0  0  0  0  0  0  0
    3.2720   -3.4110   29.2300 C   0  0  0  0  0  0  0  0  0  0  0  0
    3.5890   -3.9610   30.6120 C   0  0  0  0  0  0  0  0  0  0  0  0
    4.4250   -4.5790   29.4990 C   0  0  0  0  0  0  0  0  0  0  0  0
    5.5030   -3.7450   28.8720 C   0  0  0  0  0  0  0  0  0  0  0  0
    6.8700   -2.6930   23.1770 C   0  0  0  0  0  0  0  0  0  0  0  0
    7.6690   -3.2130   22.1620 C   0  0  0  0  0  0  0  0  0  0  0  0
  1  2  1  0
  2  3  2  0
  2  4  1  0
  4  5  1  0
  5  6  1  0
  6  7  1  0
  7  8  1  0
  8  9  2  0
  8 10  1  0
 11 10  1  6
 11 12  1  0
 12 13  1  0
 11 14  1  0
 14 13  1  0
 14 15  1  0
 15 16  1  0
 16 17  1  0
 17 18  1  0
 14 19  1  0
 18 19  1  0
  7 20  1  0
  4 21  1  0
 20 21  1  0
M  END
