piperidine-amides-12622-covalent
     RDKit          3D

 23 24  0  0  0  0  0  0  0  0999 V2000
    7.1530   -4.0110   19.6870 C   0  0  0  0  0  0  0  0  0  0  0  0
    5.8930   -3.8730   20.3120 C   0  0  0  0  0  0  0  0  0  0  0  0
    4.9430   -3.9020   19.5210 O   0  0  0  0  0  0  0  0  0  0  0  0
    5.8600   -3.8370   21.6900 N   0  0  0  0  0  0  0  0  0  0  0  0
    6.8250   -2.9640   22.2830 C   0  0  0  0  0  0  0  0  0  0  0  0
    7.3980   -3.4170   23.5510 C   0  0  0  0  0  0  0  0  0  0  0  0
    6.4640   -4.1290   24.4530 C   0  0  0  0  0  0  0  0  0  0  0  0
    5.8140   -3.1420   25.3340 C   0  0  0  0  0  0  0  0  0  0  0  0
    4.5750   -3.0020   25.2800 O   0  0  0  0  0  0  0  0  0  0  0  0
    6.5920   -2.3780   26.2070 N   0  0  0  0  0  0  0  0  0  0  0  0
    7.8830   -2.8790   26.7060 C   0  0  0  0  0  0  0  0  0  0  0  0
    7.8100   -3.1190   28.1650 C   0  0  0  0  0  0  0  0  0  0  0  0
    6.4880   -2.9770   28.7610 C   0  0  0  0  0  0  0  0  0  0  0  0
    5.8040   -4.1010   29.1580 C   0  0  0  0  0  0  0  0  0  0  0  0
    4.5710   -4.1710   29.7770 C   0  0  0  0  0  0  0  0  0  0  0  0
    3.8440   -3.0650   30.0860 C   0  0  0  0  0  0  0  0  0  0  0  0
    4.3040   -5.5760   29.9810 N   0  0  0  0  0  0  0  0  0  0  0  0
    5.3140   -6.2600   29.5130 N   0  0  0  0  0  0  0  0  0  0  0  0
    5.3910   -7.7220   29.5510 C   0  0  0  0  0  0  0  0  0  0  0  0
    6.2260   -5.4130   29.0130 C   0  0  0  0  0  0  0  0  0  0  0  0
    7.4170   -5.8720   28.4410 C   0  0  0  0  0  0  0  0  0  0  0  0
    5.4380   -4.9450   23.7830 C   0  0  0  0  0  0  0  0  0  0  0  0
    5.7950   -5.1460   22.3490 C   0  0  0  0  0  0  0  0  0  0  0  0
  1  2  1  0
  2  3  2  0
  2  4  1  0
  4  5  1  0
  5  6  1  0
  6  7  1  0
  7  8  1  0
  8  9  2  0
  8 10  1  0
 10 11  1  0
 11 12  1  0
 12 13  1  0
 13 14  1  0
 14 15  1  0
 15 16  1  0
 15 17  2  0
 17 18  1  0
 18 19  1  0
 14 20  2  0
 18 20  1  0
 20 21  1  0
  7 22  1  0
  4 23  1  0
 22 23  1  0
M  END
