piperidine-amides-25236-covalent
     RDKit          3D

 24 25  0  0  0  0  0  0  0  0999 V2000
    7.1120   -3.2650   19.2380 C   0  0  0  0  0  0  0  0  0  0  0  0
    6.3680   -4.0660   20.2450 C   0  0  0  0  0  0  0  0  0  0  0  0
    5.3030   -4.5630   19.8910 O   0  0  0  0  0  0  0  0  0  0  0  0
    6.9070   -4.2740   21.5200 N   0  0  0  0  0  0  0  0  0  0  0  0
    6.6020   -5.4600   22.2610 C   0  0  0  0  0  0  0  0  0  0  0  0
    5.8660   -5.0560   23.5060 C   0  0  0  0  0  0  0  0  0  0  0  0
    6.6370   -3.9610   24.2600 C   0  0  0  0  0  0  0  0  0  0  0  0
    5.7850   -3.5740   25.3990 C   0  0  0  0  0  0  0  0  0  0  0  0
    4.7260   -2.9740   25.1720 O   0  0  0  0  0  0  0  0  0  0  0  0
    6.1430   -3.8880   26.7270 N   0  0  0  0  0  0  0  0  0  0  0  0
    5.2790   -3.4550   27.7800 C   0  0  0  0  0  0  0  0  0  0  0  0
    6.5730   -2.9680   28.2950 C   0  0  0  0  0  0  0  0  0  0  0  0
    6.5760   -1.4910   28.4120 N   0  0  0  0  0  0  0  0  0  0  0  0
    5.5920   -1.1710   29.4520 C   0  0  0  0  0  0  0  0  0  0  0  0
    6.1840   -0.1530   30.1280 C   0  0  0  0  0  0  0  0  0  0  0  0
    7.3630   -0.5670   30.7140 O   0  0  0  0  0  0  0  0  0  0  0  0
    8.4600   -0.4980   29.8790 C   0  0  0  0  0  0  0  0  0  0  0  0
    5.8550   -0.9810   27.2230 C   0  0  0  0  0  0  0  0  0  0  0  0
    5.8310    0.5140   27.2580 C   0  0  0  0  0  0  0  0  0  0  0  0
    5.8060    1.1630   26.0440 O   0  0  0  0  0  0  0  0  0  0  0  0
    7.0310    1.6460   25.4830 C   0  0  0  0  0  0  0  0  0  0  0  0
    7.4660   -3.3770   27.1810 C   0  0  0  0  0  0  0  0  0  0  0  0
    6.9830   -2.7740   23.4000 C   0  0  0  0  0  0  0  0  0  0  0  0
    7.6950   -3.2440   22.1510 C   0  0  0  0  0  0  0  0  0  0  0  0
  1  2  1  0
  2  3  2  0
  2  4  1  0
  4  5  1  0
  5  6  1  0
  6  7  1  0
  7  8  1  0
  8  9  2  0
  8 10  1  0
 10 11  1  0
 11 12  1  0
 12 13  1  0
 13 14  1  0
 14 15  1  0
 15 16  1  0
 16 17  1  0
 13 18  1  0
 18 19  1  0
 19 20  1  0
 20 21  1  0
 10 22  1  0
 12 22  1  0
  7 23  1  0
  4 24  1  0
 23 24  1  0
M  END
