piperidine-amides-27739-covalent
     RDKit          3D

 26 28  0  0  0  0  0  0  0  0999 V2000
    7.1390   -3.3400   19.2270 C   0  0  0  0  0  0  0  0  0  0  0  0
    6.3840   -4.1040   20.2370 C   0  0  0  0  0  0  0  0  0  0  0  0
    5.2790   -4.5590   19.8910 O   0  0  0  0  0  0  0  0  0  0  0  0
    6.9510   -4.3540   21.4850 N   0  0  0  0  0  0  0  0  0  0  0  0
    6.4860   -5.4610   22.2530 C   0  0  0  0  0  0  0  0  0  0  0  0
    5.8510   -5.0690   23.5110 C   0  0  0  0  0  0  0  0  0  0  0  0
    6.4280   -3.8510   24.1240 C   0  0  0  0  0  0  0  0  0  0  0  0
    5.5360   -3.3210   25.1520 C   0  0  0  0  0  0  0  0  0  0  0  0
    4.3560   -3.0560   24.8730 O   0  0  0  0  0  0  0  0  0  0  0  0
    6.0250   -3.1340   26.4280 N   0  0  0  0  0  0  0  0  0  0  0  0
    5.4860   -2.0980   27.3210 C   0  0  0  0  0  0  0  0  0  0  0  0
    4.7890   -2.7010   28.4890 C   0  0  0  0  0  0  0  0  0  0  0  0
    5.2580   -3.9410   29.0230 C   0  0  0  0  0  0  0  0  0  0  0  0
    6.1520   -4.6370   28.3120 C   0  0  0  0  0  0  0  0  0  0  0  0
    6.6770   -5.7360   28.8550 C   0  0  0  0  0  0  0  0  0  0  0  0
    6.2000   -6.1220   30.1510 N   0  0  0  0  0  0  0  0  0  0  0  0
    5.9630   -7.4090   30.4770 C   0  0  0  0  0  0  0  0  0  0  0  0
    5.2100   -7.5000   31.6030 C   0  0  0  0  0  0  0  0  0  0  0  0
    6.4110   -8.5600   29.8020 O   0  0  0  0  0  0  0  0  0  0  0  0
    7.5960   -6.4750   28.2490 C   0  0  0  0  0  0  0  0  0  0  0  0
    8.1250   -6.2920   27.0040 C   0  0  0  0  0  0  0  0  0  0  0  0
    7.6080   -5.1950   26.2940 C   0  0  0  0  0  0  0  0  0  0  0  0
    8.1260   -4.9850   24.8980 C   0  0  0  0  0  0  0  0  0  0  0  0
    6.6020   -4.3040   26.9730 C   0  0  0  0  0  0  0  0  0  0  0  0
    6.8780   -2.7990   23.2110 C   0  0  0  0  0  0  0  0  0  0  0  0
    7.7680   -3.3520   22.1470 C   0  0  0  0  0  0  0  0  0  0  0  0
  1  2  1  0
  2  3  2  0
  2  4  1  0
  4  5  1  0
  5  6  1  0
  6  7  1  0
  7  8  1  0
  8  9  2  0
  8 10  1  0
 10 11  1  0
 11 12  1  0
 12 13  1  0
 13 14  1  0
 14 15  2  0
 15 16  1  0
 16 17  1  0
 17 18  1  0
 17 19  2  0
 15 20  1  0
 20 21  2  0
 21 22  1  0
 22 23  1  0
 10 24  1  0
 14 24  1  0
 22 24  2  0
  7 25  1  0
  4 26  1  0
 25 26  1  0
M  END
