piperidine-amides-10147-covalent
     RDKit          3D

 25 26  0  0  0  0  0  0  0  0999 V2000
    7.0810   -3.3060   19.2910 C   0  0  0  0  0  0  0  0  0  0  0  0
    6.3240   -4.0490   20.3000 C   0  0  0  0  0  0  0  0  0  0  0  0
    5.2660   -4.6020   19.9040 O   0  0  0  0  0  0  0  0  0  0  0  0
    6.8040   -4.1630   21.6110 N   0  0  0  0  0  0  0  0  0  0  0  0
    6.6400   -5.3970   22.3450 C   0  0  0  0  0  0  0  0  0  0  0  0
    6.0050   -5.0550   23.6600 C   0  0  0  0  0  0  0  0  0  0  0  0
    5.9920   -3.5650   23.8590 C   0  0  0  0  0  0  0  0  0  0  0  0
    5.6130   -3.2170   25.2510 C   0  0  0  0  0  0  0  0  0  0  0  0
    4.4030   -2.9930   25.4790 O   0  0  0  0  0  0  0  0  0  0  0  0
    6.5230   -3.1140   26.3210 N   0  0  0  0  0  0  0  0  0  0  0  0
    6.2090   -3.6270   27.6400 C   0  0  0  0  0  0  0  0  0  0  0  0
    5.9350   -5.1310   27.6890 C   0  0  0  0  0  0  0  0  0  0  0  0
    6.0330   -5.9050   26.7050 O   0  0  0  0  0  0  0  0  0  0  0  0
    5.5300   -5.4840   29.0670 N   0  0  0  0  0  0  0  0  0  0  0  0
    4.5360   -6.3360   29.2620 C   0  0  0  0  0  0  0  0  0  0  0  0
    3.5410   -6.0100   30.1700 C   0  0  0  0  0  0  0  0  0  0  0  0
    2.3630   -6.6550   30.0610 N   0  0  0  0  0  0  0  0  0  0  0  0
    1.4250   -6.1370   31.0000 C   0  0  0  0  0  0  0  0  0  0  0  0
    1.1950   -6.9500   32.1010 C   0  0  0  0  0  0  0  0  0  0  0  0
    0.2350   -7.9390   32.0000 C   0  0  0  0  0  0  0  0  0  0  0  0
    0.6300   -9.2550   31.3740 C   0  0  0  0  0  0  0  0  0  0  0  0
    1.2440   -8.7210   30.0810 C   0  0  0  0  0  0  0  0  0  0  0  0
    2.5890   -8.0350   30.1830 C   0  0  0  0  0  0  0  0  0  0  0  0
    7.3330   -2.9690   23.5360 C   0  0  0  0  0  0  0  0  0  0  0  0
    7.6810   -3.1380   22.2080 C   0  0  0  0  0  0  0  0  0  0  0  0
  1  2  1  0
  2  3  2  0
  2  4  1  0
  4  5  1  0
  5  6  1  0
  6  7  1  0
  7  8  1  0
  8  9  2  0
  8 10  1  0
 10 11  1  0
 11 12  1  0
 12 13  2  0
 12 14  1  0
 14 15  1  0
 15 16  1  0
 16 17  1  0
 17 18  1  0
 18 19  1  0
 19 20  1  0
 20 21  1  0
 21 22  1  0
 17 23  1  0
 22 23  1  0
  7 24  1  0
  4 25  1  0
 24 25  1  0
M  END
