piperidine-amides-10153-covalent
     RDKit          3D

 25 27  0  0  0  0  0  0  0  0999 V2000
    7.0500   -3.3330   19.3280 C   0  0  0  0  0  0  0  0  0  0  0  0
    6.3870   -4.1610   20.3420 C   0  0  0  0  0  0  0  0  0  0  0  0
    5.3580   -4.7830   19.9660 O   0  0  0  0  0  0  0  0  0  0  0  0
    6.9100   -4.2840   21.6370 N   0  0  0  0  0  0  0  0  0  0  0  0
    6.6930   -5.4860   22.4110 C   0  0  0  0  0  0  0  0  0  0  0  0
    5.9940   -5.1230   23.6990 C   0  0  0  0  0  0  0  0  0  0  0  0
    6.0410   -3.6430   23.9770 C   0  0  0  0  0  0  0  0  0  0  0  0
    5.6200   -3.3570   25.3690 C   0  0  0  0  0  0  0  0  0  0  0  0
    4.4030   -3.4800   25.6310 O   0  0  0  0  0  0  0  0  0  0  0  0
    6.4910   -2.9560   26.4040 N   0  0  0  0  0  0  0  0  0  0  0  0
    6.7340   -1.5480   26.7060 C   0  0  1  0  0  0  0  0  0  0  0  0
    5.4490   -0.6610   26.6100 C   0  0  0  0  0  0  0  0  0  0  0  0
    5.6340    0.3620   27.2770 O   0  0  0  0  0  0  0  0  0  0  0  0
    6.4770   -0.4050   27.9410 C   0  0  0  0  0  0  0  0  0  0  0  0
    6.1670   -0.6500   26.6590 C   0  0  0  0  0  0  0  0  0  0  0  0
    5.4710   -0.2850   25.4940 O   0  0  0  0  0  0  0  0  0  0  0  0
    6.0500    0.5420   24.5050 C   0  0  0  0  0  0  0  0  0  0  0  0
    4.9810    1.0610   23.7870 C   0  0  0  0  0  0  0  0  0  0  0  0
    4.9140    2.4310   23.8500 C   0  0  0  0  0  0  0  0  0  0  0  0
    5.6270    0.5470   27.4320 C   0  0  0  0  0  0  0  0  0  0  0  0
    6.2370    0.5120   28.8810 C   0  0  0  0  0  0  0  0  0  0  0  0
    7.1960   -0.6290   29.2480 C   0  0  0  0  0  0  0  0  0  0  0  0
    7.3870   -1.5860   28.1080 C   0  0  0  0  0  0  0  0  0  0  0  0
    7.3680   -3.0550   23.6720 C   0  0  0  0  0  0  0  0  0  0  0  0
    7.6880   -3.2050   22.2040 C   0  0  0  0  0  0  0  0  0  0  0  0
  1  2  1  0
  2  3  2  0
  2  4  1  0
  4  5  1  0
  5  6  1  0
  6  7  1  0
  7  8  1  0
  8  9  2  0
  8 10  1  0
 11 10  1  1
 11 12  1  0
 12 13  1  0
 13 14  1  0
 14 15  1  0
 15 16  1  0
 16 17  1  0
 17 18  1  0
 18 19  1  0
 15 20  2  0
 20 21  1  0
 21 22  2  0
 11 23  1  0
 14 23  2  0
 22 23  1  0
  7 24  1  0
  4 25  1  0
 24 25  1  0
M  END
