piperidine-amides-1313-covalent
     RDKit          3D

 22 23  0  0  0  0  0  0  0  0999 V2000
    7.0440   -3.3230   19.3540 C   0  0  0  0  0  0  0  0  0  0  0  0
    6.3490   -4.1750   20.3580 C   0  0  0  0  0  0  0  0  0  0  0  0
    5.3830   -4.8620   19.9870 O   0  0  0  0  0  0  0  0  0  0  0  0
    6.8270   -4.2080   21.6890 N   0  0  0  0  0  0  0  0  0  0  0  0
    7.7060   -3.1790   22.2230 C   0  0  0  0  0  0  0  0  0  0  0  0
    7.4660   -3.0460   23.7310 C   0  0  0  0  0  0  0  0  0  0  0  0
    6.1240   -3.6250   23.9940 C   0  0  0  0  0  0  0  0  0  0  0  0
    5.5390   -3.3030   25.3180 C   0  0  0  0  0  0  0  0  0  0  0  0
    4.3110   -3.4040   25.3930 O   0  0  0  0  0  0  0  0  0  0  0  0
    6.3380   -2.9020   26.3960 N   0  0  0  0  0  0  0  0  0  0  0  0
    6.2710   -1.6630   27.0900 C   0  0  0  0  0  0  0  0  0  0  0  0
    6.3300   -0.4310   26.4960 C   0  0  0  0  0  0  0  0  0  0  0  0
    6.2620    0.7460   27.2480 C   0  0  0  0  0  0  0  0  0  0  0  0
    6.1350    0.6960   28.6070 C   0  0  0  0  0  0  0  0  0  0  0  0
    6.0730    1.9590   29.3860 C   0  0  0  0  0  0  0  0  0  0  0  0
    6.0610   -0.4800   29.2690 N   0  0  0  0  0  0  0  0  0  0  0  0
    6.1260   -1.6950   28.4980 C   0  0  0  0  0  0  0  0  0  0  0  0
    6.0190   -2.8500   29.1910 N   0  0  0  0  0  0  0  0  0  0  0  0
    6.5630   -3.9630   28.6920 C   0  0  0  0  0  0  0  0  0  0  0  0
    4.8250   -3.1090   29.7120 C   0  0  0  0  0  0  0  0  0  0  0  0
    6.0720   -5.0910   23.7580 C   0  0  0  0  0  0  0  0  0  0  0  0
    6.6920   -5.4550   22.4190 C   0  0  0  0  0  0  0  0  0  0  0  0
  1  2  1  0
  2  3  2  0
  2  4  1  0
  4  5  1  0
  5  6  1  0
  6  7  1  0
  7  8  1  0
  8  9  2  0
  8 10  1  0
 10 11  1  0
 11 12  2  0
 12 13  1  0
 13 14  2  0
 14 15  1  0
 14 16  1  0
 11 17  1  0
 16 17  2  0
 17 18  1  0
 18 19  1  0
 18 20  1  0
  7 21  1  0
  4 22  1  0
 21 22  1  0
M  END
