piperidine-amides-33284-covalent
     RDKit          3D

 29 31  0  0  0  0  0  0  0  0999 V2000
    7.0550   -3.3980   19.3570 C   0  0  0  0  0  0  0  0  0  0  0  0
    6.4390   -4.2760   20.3610 C   0  0  0  0  0  0  0  0  0  0  0  0
    5.4010   -4.8840   20.0000 O   0  0  0  0  0  0  0  0  0  0  0  0
    7.0390   -4.4670   21.6400 N   0  0  0  0  0  0  0  0  0  0  0  0
    6.6150   -5.5580   22.4300 C   0  0  0  0  0  0  0  0  0  0  0  0
    6.3410   -5.1550   23.8120 C   0  0  0  0  0  0  0  0  0  0  0  0
    5.8310   -3.7680   23.9620 C   0  0  0  0  0  0  0  0  0  0  0  0
    5.3580   -3.4110   25.3520 C   0  0  0  0  0  0  0  0  0  0  0  0
    4.6910   -2.3710   25.4840 O   0  0  0  0  0  0  0  0  0  0  0  0
    5.6270   -4.1660   26.5130 N   0  0  0  0  0  0  0  0  0  0  0  0
    6.8990   -4.4380   26.9350 C   0  0  0  0  0  0  0  0  0  0  0  0
    7.1940   -5.5340   27.8390 C   0  0  0  0  0  0  0  0  0  0  0  0
    6.1670   -5.3780   28.9570 C   0  0  0  0  0  0  0  0  0  0  0  0
    4.8920   -5.1500   28.4470 C   0  0  2  0  0  0  0  0  0  0  0  0
    4.4070   -4.9370   29.9020 C   0  0  0  0  0  0  0  0  0  0  0  0
    5.1970   -6.0960   30.4840 C   0  0  0  0  0  0  0  0  0  0  0  0
    4.1860   -7.1020   29.9320 C   0  0  0  0  0  0  0  0  0  0  0  0
    4.2080   -7.3390   28.4620 C   0  0  0  0  0  0  0  0  0  0  0  0
    4.3710   -6.2020   27.6590 N   0  0  0  0  0  0  0  0  0  0  0  0
    3.2850   -5.9250   26.9300 C   0  0  0  0  0  0  0  0  0  0  0  0
    2.1740   -6.2150   27.4420 O   0  0  0  0  0  0  0  0  0  0  0  0
    3.2680   -5.3610   25.6890 O   0  0  0  0  0  0  0  0  0  0  0  0
    3.1270   -6.0950   24.4940 C   0  0  0  0  0  0  0  0  0  0  0  0
    1.6550   -6.1800   24.2940 C   0  0  0  0  0  0  0  0  0  0  0  0
    3.7730   -7.3190   24.3680 C   0  0  0  0  0  0  0  0  0  0  0  0
    3.2160   -5.3680   23.1740 C   0  0  0  0  0  0  0  0  0  0  0  0
    4.7810   -3.9940   27.6730 C   0  0  0  0  0  0  0  0  0  0  0  0
    6.7700   -2.7460   23.3800 C   0  0  0  0  0  0  0  0  0  0  0  0
    7.6400   -3.3420   22.2880 C   0  0  0  0  0  0  0  0  0  0  0  0
  1  2  1  0
  2  3  2  0
  2  4  1  0
  4  5  1  0
  5  6  1  0
  6  7  1  0
  7  8  1  0
  8  9  2  0
  8 10  1  0
 10 11  1  0
 11 12  1  0
 12 13  1  0
 14 13  1  1
 14 15  1  0
 15 16  1  0
 16 17  1  0
 17 18  1  0
 14 19  1  0
 18 19  1  0
 19 20  1  0
 20 21  2  0
 20 22  1  0
 23 22  1  0
 23 24  1  0
 23 25  1  0
 23 26  1  0
 10 27  1  0
 14 27  1  0
  7 28  1  0
  4 29  1  0
 28 29  1  0
M  END
