piperidine-amides-33947-covalent
     RDKit          3D

 26 28  0  0  0  0  0  0  0  0999 V2000
    7.0520   -3.3210   19.3450 C   0  0  0  0  0  0  0  0  0  0  0  0
    6.3750   -4.1820   20.3250 C   0  0  0  0  0  0  0  0  0  0  0  0
    5.3760   -4.8490   19.9830 O   0  0  0  0  0  0  0  0  0  0  0  0
    6.8580   -4.3090   21.6390 N   0  0  0  0  0  0  0  0  0  0  0  0
    6.6410   -5.5730   22.3180 C   0  0  0  0  0  0  0  0  0  0  0  0
    6.3590   -5.2630   23.7960 C   0  0  0  0  0  0  0  0  0  0  0  0
    6.2090   -3.7620   23.9150 C   0  0  0  0  0  0  0  0  0  0  0  0
    5.7930   -3.3640   25.2770 C   0  0  0  0  0  0  0  0  0  0  0  0
    4.5720   -3.4260   25.5400 O   0  0  0  0  0  0  0  0  0  0  0  0
    6.7340   -2.9040   26.2400 N   0  0  0  0  0  0  0  0  0  0  0  0
    6.3710   -1.7660   27.0530 C   0  0  0  0  0  0  0  0  0  0  0  0
    6.2700   -2.2390   28.4690 C   0  0  0  0  0  0  0  0  0  0  0  0
    6.1240   -3.6170   28.2890 N   0  0  0  0  0  0  0  0  0  0  0  0
    5.2910   -4.4790   29.0170 C   0  0  0  0  0  0  0  0  0  0  0  0
    4.1000   -4.0890   29.4470 C   0  0  0  0  0  0  0  0  0  0  0  0
    3.3950   -5.0310   30.1370 C   0  0  0  0  0  0  0  0  0  0  0  0
    1.7910   -4.6550   30.7710 Cl  0  0  0  0  0  0  0  0  0  0  0  0
    3.9570   -6.2860   30.3270 C   0  0  0  0  0  0  0  0  0  0  0  0
    2.9360   -7.3920   31.2220 Cl  0  0  0  0  0  0  0  0  0  0  0  0
    5.3330   -6.8280   29.8630 C   0  0  0  0  0  0  0  0  0  0  0  0
    6.2370   -8.2420   29.9440 Cl  0  0  0  0  0  0  0  0  0  0  0  0
    5.8340   -5.6320   29.1830 C   0  0  0  0  0  0  0  0  0  0  0  0
    7.3930   -4.3010   27.9270 C   0  0  0  0  0  0  0  0  0  0  0  0
    7.9170   -3.5250   26.8040 C   0  0  0  0  0  0  0  0  0  0  0  0
    7.5010   -3.1200   23.5320 C   0  0  0  0  0  0  0  0  0  0  0  0
    7.6790   -3.2670   22.1900 C   0  0  0  0  0  0  0  0  0  0  0  0
  1  2  1  0
  2  3  2  0
  2  4  1  0
  4  5  1  0
  5  6  1  0
  6  7  1  0
  7  8  1  0
  8  9  2  0
  8 10  1  0
 10 11  1  0
 11 12  1  0
 12 13  1  0
 13 14  1  0
 14 15  2  0
 15 16  1  0
 16 17  1  0
 16 18  2  0
 18 19  1  0
 18 20  1  0
 20 21  1  0
 14 22  1  0
 20 22  2  0
 13 23  1  0
 10 24  1  0
 23 24  1  0
  7 25  1  0
  4 26  1  0
 25 26  1  0
M  END
