piperidine-amides-29016-covalent
     RDKit          3D

 26 27  0  0  0  0  0  0  0  0999 V2000
    7.1020   -3.3100   19.2880 C   0  0  0  0  0  0  0  0  0  0  0  0
    6.4200   -4.1350   20.2820 C   0  0  0  0  0  0  0  0  0  0  0  0
    5.3600   -4.6940   19.9440 O   0  0  0  0  0  0  0  0  0  0  0  0
    7.0000   -4.3290   21.5630 N   0  0  0  0  0  0  0  0  0  0  0  0
    6.4980   -5.3860   22.3780 C   0  0  0  0  0  0  0  0  0  0  0  0
    5.5930   -4.7880   23.4160 C   0  0  0  0  0  0  0  0  0  0  0  0
    6.3730   -3.7380   24.1940 C   0  0  0  0  0  0  0  0  0  0  0  0
    5.5070   -3.1580   25.2700 C   0  0  0  0  0  0  0  0  0  0  0  0
    4.8000   -2.2140   24.9370 O   0  0  0  0  0  0  0  0  0  0  0  0
    5.5370   -3.7080   26.5400 N   0  0  0  0  0  0  0  0  0  0  0  0
    4.4080   -4.2600   27.1550 C   0  0  0  0  0  0  0  0  0  0  0  0
    4.4380   -4.1810   28.5540 C   0  0  0  0  0  0  0  0  0  0  0  0
    5.6140   -4.4420   29.1940 C   0  0  0  0  0  0  0  0  0  0  0  0
    5.6120   -5.6410   29.8700 C   0  0  0  0  0  0  0  0  0  0  0  0
    6.7620   -6.3590   29.6090 O   0  0  0  0  0  0  0  0  0  0  0  0
    4.5700   -6.0830   30.7120 N   0  0  0  0  0  0  0  0  0  0  0  0
    3.5700   -5.1110   31.1590 C   0  0  0  0  0  0  0  0  0  0  0  0
    3.5230   -5.2140   32.6980 C   0  0  0  0  0  0  0  0  0  0  0  0
    2.4140   -5.3990   30.4660 C   0  0  0  0  0  0  0  0  0  0  0  0
    4.4840   -7.4800   31.0290 C   0  0  0  0  0  0  0  0  0  0  0  0
    3.1960   -8.0850   31.6440 C   0  0  0  0  0  0  0  0  0  0  0  0
    5.4710   -7.7320   31.9530 C   0  0  0  0  0  0  0  0  0  0  0  0
    6.7300   -4.2470   28.4650 C   0  0  0  0  0  0  0  0  0  0  0  0
    6.3660   -3.1350   27.5190 C   0  0  0  0  0  0  0  0  0  0  0  0
    6.8550   -2.6280   23.2470 C   0  0  0  0  0  0  0  0  0  0  0  0
    7.7310   -3.2900   22.2140 C   0  0  0  0  0  0  0  0  0  0  0  0
  1  2  1  0
  2  3  2  0
  2  4  1  0
  4  5  1  0
  5  6  1  0
  6  7  1  0
  7  8  1  0
  8  9  2  0
  8 10  1  0
 10 11  1  0
 11 12  1  0
 12 13  1  0
 13 14  1  0
 14 15  2  0
 14 16  1  0
 16 17  1  0
 17 18  1  0
 17 19  1  0
 16 20  1  0
 20 21  1  0
 20 22  1  0
 13 23  1  0
 10 24  1  0
 23 24  1  0
  7 25  1  0
  4 26  1  0
 25 26  1  0
M  END
