piperidine-amides-24591-covalent
     RDKit          3D

 24 26  0  0  0  0  0  0  0  0999 V2000
    7.1040   -3.3630   19.3150 C   0  0  0  0  0  0  0  0  0  0  0  0
    6.3930   -4.1830   20.3010 C   0  0  0  0  0  0  0  0  0  0  0  0
    5.3640   -4.8100   19.9730 O   0  0  0  0  0  0  0  0  0  0  0  0
    6.8960   -4.3040   21.5970 N   0  0  0  0  0  0  0  0  0  0  0  0
    6.7360   -5.5670   22.3080 C   0  0  0  0  0  0  0  0  0  0  0  0
    6.2780   -5.2650   23.7430 C   0  0  0  0  0  0  0  0  0  0  0  0
    6.1120   -3.7730   23.8130 C   0  0  0  0  0  0  0  0  0  0  0  0
    5.6000   -3.2770   25.0880 C   0  0  0  0  0  0  0  0  0  0  0  0
    4.9840   -2.1990   25.0780 O   0  0  0  0  0  0  0  0  0  0  0  0
    5.7560   -3.9850   26.2840 N   0  0  0  0  0  0  0  0  0  0  0  0
    4.5270   -4.5050   26.8080 C   0  0  0  0  0  0  0  0  0  0  0  0
    4.6930   -5.0810   28.1930 C   0  0  0  0  0  0  0  0  0  0  0  0
    5.4140   -4.3800   29.0670 C   0  0  0  0  0  0  0  0  0  0  0  0
    5.6460   -5.0290   30.1060 O   0  0  0  0  0  0  0  0  0  0  0  0
    4.8530   -3.1090   29.1680 C   0  0  0  0  0  0  0  0  0  0  0  0
    5.6210   -2.0290   29.5920 C   0  0  0  0  0  0  0  0  0  0  0  0
    4.7680   -1.0330   30.0520 C   0  0  0  0  0  0  0  0  0  0  0  0
    4.2220   -1.0250   31.4810 C   0  0  0  0  0  0  0  0  0  0  0  0
    3.3160   -1.7890   30.5240 C   0  0  0  0  0  0  0  0  0  0  0  0
    3.7840   -3.1150   30.0080 C   0  0  0  0  0  0  0  0  0  0  0  0
    6.6440   -4.1500   28.5180 C   0  0  0  0  0  0  0  0  0  0  0  0
    6.3140   -3.3460   27.4280 C   0  0  0  0  0  0  0  0  0  0  0  0
    7.4650   -3.1360   23.5820 C   0  0  0  0  0  0  0  0  0  0  0  0
    7.7610   -3.2620   22.1320 C   0  0  0  0  0  0  0  0  0  0  0  0
  1  2  1  0
  2  3  2  0
  2  4  1  0
  4  5  1  0
  5  6  1  0
  6  7  1  0
  7  8  1  0
  8  9  2  0
  8 10  1  0
 10 11  1  0
 11 12  1  0
 12 13  1  0
 13 14  1  0
 13 15  1  0
 15 16  1  0
 16 17  1  0
 17 18  1  0
 18 19  1  0
 15 20  1  0
 19 20  1  0
 13 21  1  0
 10 22  1  0
 21 22  1  0
  7 23  1  0
  4 24  1  0
 23 24  1  0
M  END
