piperidine-amides-31084-covalent
     RDKit          3D

 26 28  0  0  0  0  0  0  0  0999 V2000
    7.0570   -3.3550   19.3660 C   0  0  0  0  0  0  0  0  0  0  0  0
    6.3880   -4.2160   20.3460 C   0  0  0  0  0  0  0  0  0  0  0  0
    5.3790   -4.8430   19.9840 O   0  0  0  0  0  0  0  0  0  0  0  0
    6.8800   -4.3990   21.6580 N   0  0  0  0  0  0  0  0  0  0  0  0
    6.6690   -5.6550   22.3560 C   0  0  0  0  0  0  0  0  0  0  0  0
    6.3700   -5.3240   23.8050 C   0  0  0  0  0  0  0  0  0  0  0  0
    6.1770   -3.8590   24.0360 C   0  0  0  0  0  0  0  0  0  0  0  0
    5.5360   -3.5010   25.3370 C   0  0  0  0  0  0  0  0  0  0  0  0
    4.3500   -3.0660   25.3050 O   0  0  0  0  0  0  0  0  0  0  0  0
    6.0990   -3.5820   26.6360 N   0  0  0  0  0  0  0  0  0  0  0  0
    6.4670   -2.2880   27.2280 C   0  0  0  0  0  0  0  0  0  0  0  0
    6.1040   -2.5710   28.6040 C   0  0  0  0  0  0  0  0  0  0  0  0
    4.9570   -3.4640   28.4940 C   0  0  2  0  0  0  0  0  0  0  0  0
    4.3440   -3.8480   29.8250 C   0  0  0  0  0  0  0  0  0  0  0  0
    4.2670   -2.7630   30.6690 O   0  0  0  0  0  0  0  0  0  0  0  0
    3.9180   -5.1140   30.1090 O   0  0  0  0  0  0  0  0  0  0  0  0
    3.7550   -5.6120   31.4340 C   0  0  0  0  0  0  0  0  0  0  0  0
    4.6960   -6.7090   31.8030 C   0  0  0  0  0  0  0  0  0  0  0  0
    5.4190   -4.4350   27.6230 C   0  0  0  0  0  0  0  0  0  0  0  0
    4.6300   -5.4220   27.0050 C   0  0  0  0  0  0  0  0  0  0  0  0
    3.7760   -6.3350   27.8660 C   0  0  0  0  0  0  0  0  0  0  0  0
    4.8550   -7.2850   28.7760 S   0  0  0  0  0  0  0  0  0  0  0  0
    5.9670   -5.9960   29.3670 C   0  0  0  0  0  0  0  0  0  0  0  0
    6.4030   -5.1850   28.2010 C   0  0  0  0  0  0  0  0  0  0  0  0
    7.4350   -3.1480   23.6740 C   0  0  0  0  0  0  0  0  0  0  0  0
    7.6590   -3.3290   22.2210 C   0  0  0  0  0  0  0  0  0  0  0  0
  1  2  1  0
  2  3  2  0
  2  4  1  0
  4  5  1  0
  5  6  1  0
  6  7  1  0
  7  8  1  0
  8  9  2  0
  8 10  1  0
 10 11  1  0
 11 12  1  0
 12 13  1  0
 13 14  1  1
 14 15  2  0
 14 16  1  0
 16 17  1  0
 17 18  1  0
 19 10  1  0
 13 19  1  0
 19 20  1  0
 20 21  1  0
 21 22  1  0
 22 23  1  0
 19 24  1  0
 23 24  1  0
  7 25  1  0
  4 26  1  0
 25 26  1  0
M  END
