piperidine-amides-13623-covalent
     RDKit          3D

 30 33  0  0  0  0  0  0  0  0999 V2000
    7.0870   -3.3250   19.3190 C   0  0  0  0  0  0  0  0  0  0  0  0
    6.3870   -4.1730   20.3190 C   0  0  0  0  0  0  0  0  0  0  0  0
    5.3760   -4.8080   19.9750 O   0  0  0  0  0  0  0  0  0  0  0  0
    6.9290   -4.2630   21.6170 N   0  0  0  0  0  0  0  0  0  0  0  0
    7.7390   -3.1960   22.1580 C   0  0  0  0  0  0  0  0  0  0  0  0
    6.9170   -2.5890   23.2820 C   0  0  0  0  0  0  0  0  0  0  0  0
    6.6140   -3.7140   24.1970 C   0  0  0  0  0  0  0  0  0  0  0  0
    5.8110   -3.2770   25.3600 C   0  0  0  0  0  0  0  0  0  0  0  0
    4.5880   -3.1900   25.1900 O   0  0  0  0  0  0  0  0  0  0  0  0
    6.4430   -2.9780   26.5700 N   0  0  0  0  0  0  0  0  0  0  0  0
    6.4210   -1.7390   27.2690 C   0  0  0  0  0  0  0  0  0  0  0  0
    6.9980   -1.5570   28.5030 C   0  0  0  0  0  0  0  0  0  0  0  0
    6.9710   -0.3320   29.1980 C   0  0  0  0  0  0  0  0  0  0  0  0
    6.3530    0.8000   28.6860 C   0  0  0  0  0  0  0  0  0  0  0  0
    6.3510    2.0700   29.4720 C   0  0  0  0  0  0  0  0  0  0  0  0
    7.5290    2.7160   29.9050 N   0  0  0  0  0  0  0  0  0  0  0  0
    6.9340    3.8250   30.5750 C   0  0  0  0  0  0  0  0  0  0  0  0
    7.5460    4.9780   31.3040 C   0  0  0  0  0  0  0  0  0  0  0  0
    6.7020    5.9190   31.8670 C   0  0  0  0  0  0  0  0  0  0  0  0
    5.1830    5.9460   31.8470 C   0  0  0  0  0  0  0  0  0  0  0  0
    4.6790    4.7030   31.0640 C   0  0  0  0  0  0  0  0  0  0  0  0
    5.5060    3.7670   30.5040 C   0  0  0  0  0  0  0  0  0  0  0  0
    5.1730    2.6570   29.8080 N   0  0  0  0  0  0  0  0  0  0  0  0
    3.9090    2.3220   29.5720 C   0  0  0  0  0  0  0  0  0  0  0  0
    3.5430    2.5020   28.2850 F   0  0  0  0  0  0  0  0  0  0  0  0
    3.5130    1.0670   29.9990 F   0  0  0  0  0  0  0  0  0  0  0  0
    5.7530    0.7120   27.4530 C   0  0  0  0  0  0  0  0  0  0  0  0
    5.7890   -0.6220   26.7110 C   0  0  0  0  0  0  0  0  0  0  0  0
    5.8130   -4.8370   23.5540 C   0  0  0  0  0  0  0  0  0  0  0  0
    6.4750   -5.3340   22.4390 C   0  0  0  0  0  0  0  0  0  0  0  0
  1  2  1  0
  2  3  2  0
  2  4  1  0
  4  5  1  0
  5  6  1  0
  6  7  1  0
  7  8  1  0
  8  9  2  0
  8 10  1  0
 10 11  1  0
 11 12  2  0
 12 13  1  0
 13 14  2  0
 14 15  1  0
 15 16  2  0
 16 17  1  0
 17 18  2  0
 18 19  1  0
 19 20  2  0
 20 21  1  0
 17 22  1  0
 21 22  2  0
 15 23  1  0
 22 23  1  0
 23 24  1  0
 24 25  1  0
 24 26  1  0
 14 27  1  0
 11 28  1  0
 27 28  2  0
  7 29  1  0
  4 30  1  0
 29 30  1  0
M  END
