piperidine-amides-10318-covalent
     RDKit          3D

 24 25  0  0  0  0  0  0  0  0999 V2000
    7.0240   -3.3540   19.3860 C   0  0  0  0  0  0  0  0  0  0  0  0
    6.3870   -4.2000   20.4030 C   0  0  0  0  0  0  0  0  0  0  0  0
    5.4150   -4.8980   19.9980 O   0  0  0  0  0  0  0  0  0  0  0  0
    6.8670   -4.2470   21.7250 N   0  0  0  0  0  0  0  0  0  0  0  0
    7.7560   -3.2140   22.2380 C   0  0  0  0  0  0  0  0  0  0  0  0
    7.4020   -2.9520   23.6730 C   0  0  0  0  0  0  0  0  0  0  0  0
    6.0600   -3.5500   23.9650 C   0  0  0  0  0  0  0  0  0  0  0  0
    5.5120   -3.1910   25.3210 C   0  0  0  0  0  0  0  0  0  0  0  0
    4.2650   -3.1580   25.3990 O   0  0  0  0  0  0  0  0  0  0  0  0
    6.2570   -2.8790   26.5190 N   0  0  0  0  0  0  0  0  0  0  0  0
    6.5100   -1.4890   26.9430 C   0  0  0  0  0  0  0  0  0  0  0  0
    6.6000   -1.0790   25.6960 C   0  0  0  0  0  0  0  0  0  0  0  0
    6.3030   -2.5310   25.9800 N   0  0  0  0  0  0  0  0  0  0  0  0
    6.2670   -2.5940   27.5110 N   0  0  0  0  0  0  0  0  0  0  0  0
    6.0000   -3.7780   28.1440 C   0  0  0  0  0  0  0  0  0  0  0  0
    4.6250   -3.9160   27.9880 C   0  0  0  0  0  0  0  0  0  0  0  0
    3.9260   -2.7160   28.0960 C   0  0  0  0  0  0  0  0  0  0  0  0
    2.8010   -2.6080   27.2930 C   0  0  0  0  0  0  0  0  0  0  0  0
    6.5500   -1.2340   28.1080 C   0  0  0  0  0  0  0  0  0  0  0  0
    6.4550   -1.6410   29.5540 C   0  0  0  0  0  0  0  0  0  0  0  0
    7.7160   -0.9330   30.0360 C   0  0  0  0  0  0  0  0  0  0  0  0
    5.2540   -1.4380   30.1960 C   0  0  0  0  0  0  0  0  0  0  0  0
    6.0950   -5.0490   23.8010 C   0  0  0  0  0  0  0  0  0  0  0  0
    6.6610   -5.4220   22.5870 C   0  0  0  0  0  0  0  0  0  0  0  0
  1  2  1  0
  2  3  2  0
  2  4  1  0
  4  5  1  0
  5  6  1  0
  6  7  1  0
  7  8  1  0
  8  9  2  0
  8 10  1  0
 10 11  1  0
 11 12  1  0
 12 13  2  0
 13 14  1  0
 14 15  1  0
 15 16  1  0
 16 17  1  0
 17 18  1  0
 11 19  2  0
 14 19  1  0
 19 20  1  0
 20 21  1  0
 20 22  1  0
  7 23  1  0
  4 24  1  0
 23 24  1  0
M  END
