piperidine-amides-19899-covalent
     RDKit          3D

 22 24  0  0  0  0  0  0  0  0999 V2000
    7.0980   -3.3420   19.3240 C   0  0  0  0  0  0  0  0  0  0  0  0
    6.3620   -4.1550   20.3180 C   0  0  0  0  0  0  0  0  0  0  0  0
    5.3170   -4.6810   19.9370 O   0  0  0  0  0  0  0  0  0  0  0  0
    6.8920   -4.3440   21.5990 N   0  0  0  0  0  0  0  0  0  0  0  0
    6.7420   -5.6120   22.2750 C   0  0  0  0  0  0  0  0  0  0  0  0
    6.1410   -5.3970   23.6330 C   0  0  0  0  0  0  0  0  0  0  0  0
    6.0190   -3.9050   23.8630 C   0  0  0  0  0  0  0  0  0  0  0  0
    5.4620   -3.6880   25.2010 C   0  0  0  0  0  0  0  0  0  0  0  0
    5.0200   -2.5710   25.4710 O   0  0  0  0  0  0  0  0  0  0  0  0
    5.3980   -4.7400   26.1430 N   0  0  0  0  0  0  0  0  0  0  0  0
    4.1760   -4.9910   26.8790 C   0  0  0  0  0  0  0  0  0  0  0  0
    4.7360   -5.2170   28.2520 C   0  0  0  0  0  0  0  0  0  0  0  0
    5.8710   -4.5610   28.3540 C   0  0  2  0  0  0  0  0  0  0  0  0
    5.6050   -3.1770   28.6740 N   0  0  0  0  0  0  0  0  0  0  0  0
    5.1190   -2.2370   27.7050 C   0  0  0  0  0  0  0  0  0  0  0  0
    4.8440   -1.2060   28.5470 C   0  0  0  0  0  0  0  0  0  0  0  0
    4.9600   -1.4660   30.0510 C   0  0  0  0  0  0  0  0  0  0  0  0
    4.9520   -2.9600   29.8220 C   0  0  0  0  0  0  0  0  0  0  0  0
    4.3080   -3.8290   30.6500 O   0  0  0  0  0  0  0  0  0  0  0  0
    6.4920   -4.9650   27.0120 C   0  0  0  0  0  0  0  0  0  0  0  0
    7.2350   -3.1320   23.5830 C   0  0  0  0  0  0  0  0  0  0  0  0
    7.7020   -3.2970   22.1840 C   0  0  0  0  0  0  0  0  0  0  0  0
  1  2  1  0
  2  3  2  0
  2  4  1  0
  4  5  1  0
  5  6  1  0
  6  7  1  0
  7  8  1  0
  8  9  2  0
  8 10  1  0
 10 11  1  0
 11 12  1  0
 12 13  1  0
 13 14  1  6
 14 15  1  0
 15 16  1  0
 16 17  1  0
 14 18  1  0
 17 18  1  0
 18 19  2  0
 10 20  1  0
 13 20  1  0
  7 21  1  0
  4 22  1  0
 21 22  1  0
M  END
