piperidine-amides-18873-covalent
     RDKit          3D

 21 22  0  0  0  0  0  0  0  0999 V2000
    7.1420   -3.3650   19.4200 C   0  0  0  0  0  0  0  0  0  0  0  0
    6.4760   -4.2170   20.3740 C   0  0  0  0  0  0  0  0  0  0  0  0
    5.4490   -4.8730   19.9960 O   0  0  0  0  0  0  0  0  0  0  0  0
    6.9770   -4.3550   21.6850 N   0  0  0  0  0  0  0  0  0  0  0  0
    6.6150   -5.5560   22.4560 C   0  0  0  0  0  0  0  0  0  0  0  0
    5.7130   -4.8910   23.5730 C   0  0  0  0  0  0  0  0  0  0  0  0
    6.4940   -3.7550   24.2300 C   0  0  0  0  0  0  0  0  0  0  0  0
    5.5710   -3.1880   25.3940 C   0  0  0  0  0  0  0  0  0  0  0  0
    4.6250   -2.6320   24.8640 O   0  0  0  0  0  0  0  0  0  0  0  0
    5.9550   -3.4160   26.6030 N   0  0  0  0  0  0  0  0  0  0  0  0
    5.7770   -3.5090   27.9350 C   0  0  0  0  0  0  0  0  0  0  0  0
    5.4380   -4.5200   28.7770 C   0  0  0  0  0  0  0  0  0  0  0  0
    6.5630   -5.0750   29.3790 O   0  0  0  0  0  0  0  0  0  0  0  0
    7.6860   -5.1180   28.5680 C   0  0  0  0  0  0  0  0  0  0  0  0
    7.1830   -5.3220   27.1950 C   0  0  0  0  0  0  0  0  0  0  0  0
    7.3300   -3.8300   26.8350 C   0  0  1  0  0  0  0  0  0  0  0  0
    8.0630   -4.1680   25.6930 C   0  0  0  0  0  0  0  0  0  0  0  0
    9.2760   -4.8330   25.9140 O   0  0  0  0  0  0  0  0  0  0  0  0
    9.4290   -5.9920   26.6370 C   0  0  0  0  0  0  0  0  0  0  0  0
    7.0950   -2.7400   23.3950 C   0  0  0  0  0  0  0  0  0  0  0  0
    7.8870   -3.4770   22.2960 C   0  0  0  0  0  0  0  0  0  0  0  0
  1  2  1  0
  2  3  2  0
  2  4  1  0
  4  5  1  0
  5  6  1  0
  6  7  1  0
  7  8  1  0
  8  9  2  0
  8 10  1  0
 10 11  1  0
 11 12  1  0
 12 13  1  0
 13 14  1  0
 14 15  1  0
 10 16  1  0
 15 16  1  0
 16 17  1  6
 17 18  1  0
 18 19  1  0
  7 20  1  0
  4 21  1  0
 20 21  1  0
M  END
