piperidine-amides-9999-covalent
     RDKit          3D

 26 29  0  0  0  0  0  0  0  0999 V2000
    7.1350   -3.3320   19.2230 C   0  0  0  0  0  0  0  0  0  0  0  0
    6.3910   -4.0810   20.2370 C   0  0  0  0  0  0  0  0  0  0  0  0
    5.2920   -4.5850   19.8930 O   0  0  0  0  0  0  0  0  0  0  0  0
    6.9490   -4.2490   21.4960 N   0  0  0  0  0  0  0  0  0  0  0  0
    7.7790   -3.2050   22.0410 C   0  0  0  0  0  0  0  0  0  0  0  0
    7.0870   -2.7000   23.2510 C   0  0  0  0  0  0  0  0  0  0  0  0
    6.8130   -3.8200   24.1990 C   0  0  0  0  0  0  0  0  0  0  0  0
    6.2110   -3.2150   25.3870 C   0  0  0  0  0  0  0  0  0  0  0  0
    5.1340   -3.6890   25.8150 O   0  0  0  0  0  0  0  0  0  0  0  0
    6.7690   -2.0990   26.0430 N   0  0  0  0  0  0  0  0  0  0  0  0
    5.9130   -1.3970   26.9320 C   0  0  2  0  0  0  0  0  0  0  0  0
    5.8640    0.1070   26.8950 C   0  0  0  0  0  0  0  0  0  0  0  0
    5.7750    0.6120   28.1040 C   0  0  2  0  0  0  0  0  0  0  0  0
    6.3320    1.9190   28.3650 C   0  0  0  0  0  0  0  0  0  0  0  0
    7.0700    2.2380   29.5600 C   0  0  0  0  0  0  0  0  0  0  0  0
    7.4480    1.2130   30.3990 C   0  0  0  0  0  0  0  0  0  0  0  0
    7.4660    1.2370   31.7810 C   0  0  0  0  0  0  0  0  0  0  0  0
    8.8060    1.1200   31.1360 C   0  0  0  0  0  0  0  0  0  0  0  0
    7.0020   -0.0240   29.8150 C   0  0  0  0  0  0  0  0  0  0  0  0
    6.0680    0.8860   30.1200 C   0  0  0  0  0  0  0  0  0  0  0  0
    5.4970   -0.5410   30.4130 C   0  0  0  0  0  0  0  0  0  0  0  0
    5.7040   -1.8870   29.8400 C   0  0  0  0  0  0  0  0  0  0  0  0
    5.8480   -1.9440   28.3580 C   0  0  0  0  0  0  0  0  0  0  0  0
    6.1450   -0.5270   28.8070 C   0  0  0  0  0  0  0  0  0  0  0  0
    5.9950   -4.9130   23.5900 C   0  0  0  0  0  0  0  0  0  0  0  0
    6.5410   -5.3660   22.2930 C   0  0  0  0  0  0  0  0  0  0  0  0
  1  2  1  0
  2  3  2  0
  2  4  1  0
  4  5  1  0
  5  6  1  0
  6  7  1  0
  7  8  1  0
  8  9  2  0
  8 10  1  0
 11 10  1  1
 11 12  1  0
 13 12  1  6
 13 14  1  0
 14 15  1  0
 15 16  1  0
 16 17  1  0
 16 18  1  0
 16 19  1  0
 19 20  1  0
 20 21  2  0
 21 22  1  0
 11 23  1  0
 22 23  2  0
 13 24  1  0
 19 24  2  0
 23 24  1  0
  7 25  1  0
  4 26  1  0
 25 26  1  0
M  END
