piperidine-amides-6787-covalent
     RDKit          3D

 23 24  0  0  0  0  0  0  0  0999 V2000
    7.1330   -3.2620   19.2330 C   0  0  0  0  0  0  0  0  0  0  0  0
    6.3200   -3.9830   20.2260 C   0  0  0  0  0  0  0  0  0  0  0  0
    5.2780   -4.5800   19.8890 O   0  0  0  0  0  0  0  0  0  0  0  0
    6.7330   -4.0420   21.5590 N   0  0  0  0  0  0  0  0  0  0  0  0
    7.6720   -3.0510   22.0310 C   0  0  0  0  0  0  0  0  0  0  0  0
    7.6710   -3.1790   23.5430 C   0  0  0  0  0  0  0  0  0  0  0  0
    6.2540   -3.5570   23.8930 C   0  0  0  0  0  0  0  0  0  0  0  0
    6.0310   -3.4040   25.3350 C   0  0  0  0  0  0  0  0  0  0  0  0
    4.8750   -3.1160   25.7240 O   0  0  0  0  0  0  0  0  0  0  0  0
    7.1290   -3.5860   26.2240 N   0  0  0  0  0  0  0  0  0  0  0  0
    6.8870   -4.0800   27.5490 C   0  0  1  0  0  0  0  0  0  0  0  0
    8.0600   -4.9510   27.9720 C   0  0  0  0  0  0  0  0  0  0  0  0
    8.7440   -5.6930   27.0510 C   0  0  0  0  0  0  0  0  0  0  0  0
    9.2580   -5.1320   26.0480 O   0  0  0  0  0  0  0  0  0  0  0  0
    6.5610   -3.0210   28.5080 C   0  0  0  0  0  0  0  0  0  0  0  0
    7.4550   -2.0250   28.7600 C   0  0  0  0  0  0  0  0  0  0  0  0
    7.1950   -1.0090   29.6510 C   0  0  0  0  0  0  0  0  0  0  0  0
    6.0260   -0.6160   30.5700 C   0  0  0  0  0  0  0  0  0  0  0  0
    5.1350   -1.8030   30.1760 C   0  0  0  0  0  0  0  0  0  0  0  0
    5.4180   -2.9090   29.2080 C   0  0  0  0  0  0  0  0  0  0  0  0
    4.4780   -3.8520   29.0220 F   0  0  0  0  0  0  0  0  0  0  0  0
    5.9020   -4.9670   23.4570 C   0  0  0  0  0  0  0  0  0  0  0  0
    6.6210   -5.2830   22.2940 C   0  0  0  0  0  0  0  0  0  0  0  0
  1  2  1  0
  2  3  2  0
  2  4  1  0
  4  5  1  0
  5  6  1  0
  6  7  1  0
  7  8  1  0
  8  9  2  0
  8 10  1  0
 10 11  1  0
 11 12  1  1
 12 13  1  0
 13 14  1  0
 11 15  1  0
 15 16  2  0
 16 17  1  0
 17 18  2  0
 18 19  1  0
 15 20  1  0
 19 20  2  0
 20 21  1  0
  7 22  1  0
  4 23  1  0
 22 23  1  0
M  END
