piperidine-amides-11300-covalent
     RDKit          3D

 18 19  0  0  0  0  0  0  0  0999 V2000
    7.0930   -3.3350   19.2950 C   0  0  0  0  0  0  0  0  0  0  0  0
    6.3530   -4.1140   20.2860 C   0  0  0  0  0  0  0  0  0  0  0  0
    5.3110   -4.6970   19.9390 O   0  0  0  0  0  0  0  0  0  0  0  0
    6.8270   -4.2670   21.6040 N   0  0  0  0  0  0  0  0  0  0  0  0
    7.7000   -3.2860   22.2260 C   0  0  0  0  0  0  0  0  0  0  0  0
    6.9300   -2.7120   23.3860 C   0  0  0  0  0  0  0  0  0  0  0  0
    6.3870   -3.7990   24.2510 C   0  0  0  0  0  0  0  0  0  0  0  0
    5.5990   -3.2530   25.3920 C   0  0  0  0  0  0  0  0  0  0  0  0
    4.3740   -2.9790   25.2300 O   0  0  0  0  0  0  0  0  0  0  0  0
    6.1380   -3.0120   26.6930 N   0  0  0  0  0  0  0  0  0  0  0  0
    6.4940   -1.6280   27.1430 C   0  0  0  0  0  0  0  0  0  0  0  0
    6.3440   -0.8200   26.1200 C   0  0  0  0  0  0  0  0  0  0  0  0
    6.1750   -2.2090   26.3880 N   0  0  0  0  0  0  0  0  0  0  0  0
    6.4900   -2.6210   27.7810 N   0  0  0  0  0  0  0  0  0  0  0  0
    6.4080   -3.9790   28.3950 C   0  0  0  0  0  0  0  0  0  0  0  0
    6.8920   -1.4660   28.4480 C   0  0  0  0  0  0  0  0  0  0  0  0
    5.7030   -4.9190   23.5420 C   0  0  0  0  0  0  0  0  0  0  0  0
    6.4980   -5.4150   22.3930 C   0  0  0  0  0  0  0  0  0  0  0  0
  1  2  1  0
  2  3  2  0
  2  4  1  0
  4  5  1  0
  5  6  1  0
  6  7  1  0
  7  8  1  0
  8  9  2  0
  8 10  1  0
 10 11  1  0
 11 12  1  0
 12 13  2  0
 13 14  1  0
 14 15  1  0
 11 16  2  0
 14 16  1  0
  7 17  1  0
  4 18  1  0
 17 18  1  0
M  END
