piperidine-amides-25920-covalent
     RDKit          3D

 25 27  0  0  0  0  0  0  0  0999 V2000
    7.1090   -3.3680   19.3520 C   0  0  0  0  0  0  0  0  0  0  0  0
    6.3980   -4.2050   20.3150 C   0  0  0  0  0  0  0  0  0  0  0  0
    5.3440   -4.7560   19.9620 O   0  0  0  0  0  0  0  0  0  0  0  0
    6.9240   -4.4610   21.5960 N   0  0  0  0  0  0  0  0  0  0  0  0
    6.5150   -5.6080   22.3430 C   0  0  0  0  0  0  0  0  0  0  0  0
    5.5950   -5.0260   23.3810 C   0  0  0  0  0  0  0  0  0  0  0  0
    6.2630   -4.0260   24.2920 C   0  0  0  0  0  0  0  0  0  0  0  0
    5.2830   -3.4500   25.2560 C   0  0  0  0  0  0  0  0  0  0  0  0
    4.3130   -2.7810   24.8160 O   0  0  0  0  0  0  0  0  0  0  0  0
    5.3540   -3.5870   26.6630 N   0  0  0  0  0  0  0  0  0  0  0  0
    6.5210   -3.1260   27.3410 C   0  0  0  0  0  0  0  0  0  0  0  0
    6.7550   -4.1680   28.3670 C   0  0  0  0  0  0  0  0  0  0  0  0
    5.6550   -4.2260   29.2750 C   0  0  0  0  0  0  0  0  0  0  0  0
    5.6920   -3.1480   29.9100 O   0  0  0  0  0  0  0  0  0  0  0  0
    4.4840   -2.4940   30.1850 C   0  0  0  0  0  0  0  0  0  0  0  0
    4.2120   -1.1980   29.4880 C   0  0  0  0  0  0  0  0  0  0  0  0
    2.9180   -0.6490   29.8960 C   0  0  0  0  0  0  0  0  0  0  0  0
    2.1030   -1.2840   30.8010 C   0  0  0  0  0  0  0  0  0  0  0  0
    2.4700   -2.5160   31.3980 C   0  0  0  0  0  0  0  0  0  0  0  0
    1.5140   -3.1490   32.3880 C   0  0  0  0  0  0  0  0  0  0  0  0
    3.6260   -3.1480   31.1250 N   0  0  0  0  0  0  0  0  0  0  0  0
    4.4400   -4.4930   28.7080 C   0  0  0  0  0  0  0  0  0  0  0  0
    4.1350   -3.7270   27.4310 C   0  0  0  0  0  0  0  0  0  0  0  0
    6.9870   -2.9430   23.5310 C   0  0  0  0  0  0  0  0  0  0  0  0
    7.5870   -3.3790   22.2480 C   0  0  0  0  0  0  0  0  0  0  0  0
  1  2  1  0
  2  3  2  0
  2  4  1  0
  4  5  1  0
  5  6  1  0
  6  7  1  0
  7  8  1  0
  8  9  2  0
  8 10  1  0
 10 11  1  0
 11 12  1  0
 12 13  1  0
 13 14  1  0
 14 15  1  0
 15 16  2  0
 16 17  1  0
 17 18  2  0
 18 19  1  0
 19 20  1  0
 15 21  1  0
 19 21  2  0
 13 22  1  0
 10 23  1  0
 22 23  1  0
  7 24  1  0
  4 25  1  0
 24 25  1  0
M  END
