piperidine-amides-12716-covalent
     RDKit          3D

 22 24  0  0  0  0  0  0  0  0999 V2000
    7.0950   -3.3000   19.2030 C   0  0  0  0  0  0  0  0  0  0  0  0
    6.3680   -4.0730   20.2390 C   0  0  0  0  0  0  0  0  0  0  0  0
    5.2750   -4.5520   19.8830 O   0  0  0  0  0  0  0  0  0  0  0  0
    6.8970   -4.3130   21.5170 N   0  0  0  0  0  0  0  0  0  0  0  0
    6.3280   -5.3420   22.3140 C   0  0  0  0  0  0  0  0  0  0  0  0
    5.6380   -4.8490   23.5130 C   0  0  0  0  0  0  0  0  0  0  0  0
    6.1870   -3.5960   24.1090 C   0  0  0  0  0  0  0  0  0  0  0  0
    5.1650   -2.9530   24.9950 C   0  0  0  0  0  0  0  0  0  0  0  0
    5.1480   -1.7140   25.0500 O   0  0  0  0  0  0  0  0  0  0  0  0
    4.2200   -3.6700   25.7680 N   0  0  0  0  0  0  0  0  0  0  0  0
    4.4780   -4.0210   27.1720 C   0  0  0  0  0  0  0  0  0  0  0  0
    5.8650   -4.3830   27.1720 C   0  0  0  0  0  0  0  0  0  0  0  0
    6.3900   -5.2000   26.1550 N   0  0  0  0  0  0  0  0  0  0  0  0
    7.6900   -5.2220   26.5450 C   0  0  0  0  0  0  0  0  0  0  0  0
    8.5570   -5.8840   25.8250 N   0  0  0  0  0  0  0  0  0  0  0  0
    9.7140   -5.7090   26.4610 C   0  0  0  0  0  0  0  0  0  0  0  0
   10.0010   -5.0070   27.6180 C   0  0  0  0  0  0  0  0  0  0  0  0
    9.0160   -4.3730   28.2470 C   0  0  0  0  0  0  0  0  0  0  0  0
    7.8690   -4.5260   27.6430 C   0  0  0  0  0  0  0  0  0  0  0  0
    6.7830   -4.0370   28.0110 O   0  0  0  0  0  0  0  0  0  0  0  0
    6.7810   -2.6270   23.1390 C   0  0  0  0  0  0  0  0  0  0  0  0
    7.6110   -3.2750   22.2210 C   0  0  0  0  0  0  0  0  0  0  0  0
  1  2  1  0
  2  3  2  0
  2  4  1  0
  4  5  1  0
  5  6  1  0
  6  7  1  0
  7  8  1  0
  8  9  2  0
  8 10  1  0
 10 11  1  0
 11 12  1  0
 12 13  2  0
 13 14  1  0
 14 15  2  0
 15 16  1  0
 16 17  2  0
 17 18  1  0
 14 19  1  0
 18 19  2  0
 12 20  1  0
 19 20  1  0
  7 21  1  0
  4 22  1  0
 21 22  1  0
M  END
