piperidine-amides-5297-covalent
     RDKit          3D

 21 22  0  0  0  0  0  0  0  0999 V2000
    7.0780   -3.3030   19.2570 C   0  0  0  0  0  0  0  0  0  0  0  0
    6.2600   -4.0810   20.2160 C   0  0  0  0  0  0  0  0  0  0  0  0
    5.1610   -4.4900   19.8260 O   0  0  0  0  0  0  0  0  0  0  0  0
    6.7450   -4.3790   21.4830 N   0  0  0  0  0  0  0  0  0  0  0  0
    7.4580   -3.3690   22.1530 C   0  0  0  0  0  0  0  0  0  0  0  0
    6.8500   -2.9960   23.4100 C   0  0  0  0  0  0  0  0  0  0  0  0
    6.3620   -4.1250   24.2180 C   0  0  0  0  0  0  0  0  0  0  0  0
    5.6420   -3.5850   25.3930 C   0  0  0  0  0  0  0  0  0  0  0  0
    4.4020   -3.7050   25.4520 O   0  0  0  0  0  0  0  0  0  0  0  0
    6.3460   -2.9300   26.4170 N   0  0  0  0  0  0  0  0  0  0  0  0
    6.8710   -1.5650   26.2070 C   0  0  0  0  0  0  0  0  0  0  0  0
    7.5970   -1.4380   24.9020 C   0  0  0  0  0  0  0  0  0  0  0  0
    7.3000   -0.3170   24.0080 C   0  0  0  0  0  0  0  0  0  0  0  0
    6.4110    0.7230   24.1250 C   0  0  0  0  0  0  0  0  0  0  0  0
    8.1380   -0.3130   22.7200 C   0  0  0  0  0  0  0  0  0  0  0  0
    9.0640   -1.2590   22.4340 C   0  0  0  0  0  0  0  0  0  0  0  0
    9.2670   -2.2710   23.3230 C   0  0  0  0  0  0  0  0  0  0  0  0
    8.5730   -2.3810   24.5180 C   0  0  0  0  0  0  0  0  0  0  0  0
    8.8150   -3.4260   25.3720 F   0  0  0  0  0  0  0  0  0  0  0  0
    5.5140   -5.0430   23.3720 C   0  0  0  0  0  0  0  0  0  0  0  0
    6.3530   -5.5450   22.2520 C   0  0  0  0  0  0  0  0  0  0  0  0
  1  2  1  0
  2  3  2  0
  2  4  1  0
  4  5  1  0
  5  6  1  0
  6  7  1  0
  7  8  1  0
  8  9  2  0
  8 10  1  0
 10 11  1  0
 11 12  1  0
 12 13  2  0
 13 14  1  0
 13 15  1  0
 15 16  2  0
 16 17  1  0
 12 18  1  0
 17 18  2  0
 18 19  1  0
  7 20  1  0
  4 21  1  0
 20 21  1  0
M  END
