piperidine-amides-538-covalent
     RDKit          3D

 26 28  0  0  0  0  0  0  0  0999 V2000
    7.0940   -3.3420   19.1990 C   0  0  0  0  0  0  0  0  0  0  0  0
    6.3810   -4.0350   20.2450 C   0  0  0  0  0  0  0  0  0  0  0  0
    5.3030   -4.6180   19.9160 O   0  0  0  0  0  0  0  0  0  0  0  0
    6.8540   -4.1450   21.5710 N   0  0  0  0  0  0  0  0  0  0  0  0
    6.7000   -5.4430   22.2430 C   0  0  0  0  0  0  0  0  0  0  0  0
    5.6930   -4.9840   23.3500 C   0  0  0  0  0  0  0  0  0  0  0  0
    6.3790   -3.8710   24.1230 C   0  0  0  0  0  0  0  0  0  0  0  0
    5.3030   -3.3190   25.1460 C   0  0  0  0  0  0  0  0  0  0  0  0
    4.1960   -3.3490   24.6300 O   0  0  0  0  0  0  0  0  0  0  0  0
    5.8190   -2.9690   26.2490 N   0  0  0  0  0  0  0  0  0  0  0  0
    6.2540   -2.5280   27.4500 C   0  0  0  0  0  0  0  0  0  0  0  0
    5.7850   -2.0470   28.6360 C   0  0  0  0  0  0  0  0  0  0  0  0
    5.0190   -2.9080   29.4770 C   0  0  0  0  0  0  0  0  0  0  0  0
    4.0120   -2.4630   30.4610 C   0  0  0  0  0  0  0  0  0  0  0  0
    3.3390   -3.6240   31.2160 C   0  0  0  0  0  0  0  0  0  0  0  0
    3.7060   -4.9520   30.9390 C   0  0  0  0  0  0  0  0  0  0  0  0
    4.5940   -5.6380   30.0980 C   0  0  0  0  0  0  0  0  0  0  0  0
    4.8950   -7.3510   29.9210 Cl  0  0  0  0  0  0  0  0  0  0  0  0
    5.1780   -4.4010   29.4230 C   0  0  0  0  0  0  0  0  0  0  0  0
    6.1170   -4.6420   28.4980 F   0  0  0  0  0  0  0  0  0  0  0  0
    4.5900   -1.1580   28.4360 C   0  0  0  0  0  0  0  0  0  0  0  0
    4.9650    0.0040   29.0370 C   0  0  0  0  0  0  0  0  0  0  0  0
    6.2400   -0.0910   29.5340 C   0  0  0  0  0  0  0  0  0  0  0  0
    6.8430   -1.3160   29.4130 C   0  0  0  0  0  0  0  0  0  0  0  0
    7.0920   -2.7640   23.3930 C   0  0  0  0  0  0  0  0  0  0  0  0
    7.6840   -3.1590   22.1920 C   0  0  0  0  0  0  0  0  0  0  0  0
  1  2  1  0
  2  3  2  0
  2  4  1  0
  4  5  1  0
  5  6  1  0
  6  7  1  0
  7  8  1  0
  8  9  2  0
  8 10  1  0
 10 11  1  0
 12 11  1  0
 12 13  1  0
 13 14  2  0
 14 15  1  0
 15 16  2  0
 16 17  1  0
 17 18  1  0
 13 19  1  0
 17 19  2  0
 19 20  1  0
 12 21  1  0
 21 22  1  0
 22 23  1  0
 12 24  1  0
 23 24  1  0
  7 25  1  0
  4 26  1  0
 25 26  1  0
M  END
