piperidine-amides-31752-covalent
     RDKit          3D

 27 28  0  0  0  0  0  0  0  0999 V2000
    7.0150   -3.4130   19.3840 C   0  0  0  0  0  0  0  0  0  0  0  0
    6.3650   -4.2190   20.3950 C   0  0  0  0  0  0  0  0  0  0  0  0
    5.3840   -4.9220   20.0030 O   0  0  0  0  0  0  0  0  0  0  0  0
    6.7750   -4.3160   21.7530 N   0  0  0  0  0  0  0  0  0  0  0  0
    7.6800   -3.2960   22.3420 C   0  0  0  0  0  0  0  0  0  0  0  0
    6.7140   -2.6410   23.4070 C   0  0  0  0  0  0  0  0  0  0  0  0
    6.4620   -3.7080   24.4530 C   0  0  0  0  0  0  0  0  0  0  0  0
    5.0920   -3.4670   25.2710 C   0  0  0  0  0  0  0  0  0  0  0  0
    4.1780   -3.4930   24.4690 O   0  0  0  0  0  0  0  0  0  0  0  0
    5.2190   -3.2930   26.5600 N   0  0  0  0  0  0  0  0  0  0  0  0
    4.9740   -2.9430   27.8620 C   0  0  0  0  0  0  0  0  0  0  0  0
    5.0040   -3.5370   29.0970 C   0  0  1  0  0  0  0  0  0  0  0  0
    3.6510   -3.5400   29.6690 N   0  0  0  0  0  0  0  0  0  0  0  0
    3.1280   -4.6030   30.3250 C   0  0  0  0  0  0  0  0  0  0  0  0
    2.7650   -4.6660   31.6800 O   0  0  0  0  0  0  0  0  0  0  0  0
    2.9580   -5.7170   29.4940 O   0  0  0  0  0  0  0  0  0  0  0  0
    3.4360   -7.0060   29.7530 C   0  0  0  0  0  0  0  0  0  0  0  0
    4.6060   -7.6180   28.9490 C   0  0  0  0  0  0  0  0  0  0  0  0
    4.7490   -7.1850   30.5550 C   0  0  0  0  0  0  0  0  0  0  0  0
    2.3620   -8.0270   30.0240 C   0  0  0  0  0  0  0  0  0  0  0  0
    5.3300   -4.9880   29.0520 C   0  0  0  0  0  0  0  0  0  0  0  0
    6.4890   -4.6970   28.1080 C   0  0  0  0  0  0  0  0  0  0  0  0
    6.5470   -5.8360   27.3000 F   0  0  0  0  0  0  0  0  0  0  0  0
    7.5510   -4.7800   28.9030 F   0  0  0  0  0  0  0  0  0  0  0  0
    6.3950   -3.5370   27.3220 C   0  0  0  0  0  0  0  0  0  0  0  0
    6.5990   -5.1320   23.9050 C   0  0  0  0  0  0  0  0  0  0  0  0
    6.1880   -5.3100   22.6140 C   0  0  0  0  0  0  0  0  0  0  0  0
  1  2  1  0
  2  3  2  0
  2  4  1  0
  4  5  1  0
  5  6  1  0
  6  7  1  0
  7  8  1  0
  8  9  2  0
  8 10  1  0
 10 11  1  0
 11 12  1  0
 12 13  1  6
 13 14  1  0
 14 15  2  0
 14 16  1  0
 17 16  1  0
 17 18  1  0
 17 19  1  0
 17 20  1  0
 12 21  1  0
 21 22  1  0
 22 23  1  0
 22 24  1  0
 10 25  1  0
 22 25  1  0
  7 26  1  0
  4 27  1  0
 26 27  1  0
M  END
