piperidine-amides-29634-covalent
     RDKit          3D

 27 30  0  0  0  0  0  0  0  0999 V2000
    7.0300   -3.3420   19.3310 C   0  0  0  0  0  0  0  0  0  0  0  0
    6.3560   -4.1590   20.3330 C   0  0  0  0  0  0  0  0  0  0  0  0
    5.3960   -4.8510   19.9900 O   0  0  0  0  0  0  0  0  0  0  0  0
    6.8210   -4.2070   21.6980 N   0  0  0  0  0  0  0  0  0  0  0  0
    7.6740   -3.1500   22.2180 C   0  0  0  0  0  0  0  0  0  0  0  0
    7.3780   -2.8380   23.6630 C   0  0  0  0  0  0  0  0  0  0  0  0
    6.0810   -3.5340   24.0040 C   0  0  0  0  0  0  0  0  0  0  0  0
    5.5390   -3.2050   25.3710 C   0  0  0  0  0  0  0  0  0  0  0  0
    4.3170   -3.0350   25.5240 O   0  0  0  0  0  0  0  0  0  0  0  0
    6.3620   -3.0750   26.5320 N   0  0  0  0  0  0  0  0  0  0  0  0
    6.3610   -4.2150   27.4370 C   0  0  0  0  0  0  0  0  0  0  0  0
    5.8150   -5.3010   26.8750 C   0  0  0  0  0  0  0  0  0  0  0  0
    4.9120   -4.7270   27.8130 C   0  0  0  0  0  0  0  0  0  0  0  0
    6.1980   -1.8020   27.3410 C   0  0  0  0  0  0  0  0  0  0  0  0
    5.8980   -0.7150   26.5290 C   0  0  0  0  0  0  0  0  0  0  0  0
    5.7430    0.5820   27.2670 C   0  0  0  0  0  0  0  0  0  0  0  0
    5.5910    0.4320   28.6140 N   0  0  0  0  0  0  0  0  0  0  0  0
    4.7640    1.1910   29.5270 C   0  0  0  0  0  0  0  0  0  0  0  0
    5.2060    1.3590   30.8060 C   0  0  0  0  0  0  0  0  0  0  0  0
    4.5020    2.0660   31.7770 C   0  0  0  0  0  0  0  0  0  0  0  0
    3.3090    2.6460   31.5120 N   0  0  0  0  0  0  0  0  0  0  0  0
    2.7970    2.4800   30.1260 C   0  0  0  0  0  0  0  0  0  0  0  0
    3.5520    1.7620   29.2090 C   0  0  0  0  0  0  0  0  0  0  0  0
    6.5920   -0.4200   29.1450 C   0  0  0  0  0  0  0  0  0  0  0  0
    7.0850   -1.5320   28.3410 C   0  0  0  0  0  0  0  0  0  0  0  0
    6.1270   -5.0230   23.8430 C   0  0  0  0  0  0  0  0  0  0  0  0
    6.6280   -5.4060   22.4660 C   0  0  0  0  0  0  0  0  0  0  0  0
  1  2  1  0
  2  3  2  0
  2  4  1  0
  4  5  1  0
  5  6  1  0
  6  7  1  0
  7  8  1  0
  8  9  2  0
  8 10  1  0
 10 11  1  0
 11 12  1  0
 11 13  1  0
 12 13  1  0
 10 14  1  0
 14 15  1  0
 15 16  1  0
 16 17  1  0
 17 18  1  0
 18 19  2  0
 19 20  1  0
 20 21  2  0
 21 22  1  0
 18 23  1  0
 22 23  2  0
 17 24  1  0
 14 25  1  0
 24 25  1  0
  7 26  1  0
  4 27  1  0
 26 27  1  0
M  END
