piperidine-amides-1970-covalent
     RDKit          3D

 24 25  0  0  0  0  0  0  0  0999 V2000
    7.0730   -3.2930   19.2170 C   0  0  0  0  0  0  0  0  0  0  0  0
    6.3640   -4.0820   20.2570 C   0  0  0  0  0  0  0  0  0  0  0  0
    5.3200   -4.6360   19.9160 O   0  0  0  0  0  0  0  0  0  0  0  0
    6.9060   -4.2160   21.5380 N   0  0  0  0  0  0  0  0  0  0  0  0
    6.5580   -5.3040   22.4100 C   0  0  0  0  0  0  0  0  0  0  0  0
    5.7920   -4.7640   23.5860 C   0  0  0  0  0  0  0  0  0  0  0  0
    6.5620   -3.6220   24.2720 C   0  0  0  0  0  0  0  0  0  0  0  0
    5.7220   -3.1310   25.3880 C   0  0  0  0  0  0  0  0  0  0  0  0
    4.8160   -3.8520   25.8190 O   0  0  0  0  0  0  0  0  0  0  0  0
    5.9100   -1.8500   25.9570 N   0  0  0  0  0  0  0  0  0  0  0  0
    6.8430   -1.6780   27.0430 C   0  0  0  0  0  0  0  0  0  0  0  0
    6.3790   -0.5140   27.9070 C   0  0  2  0  0  0  0  0  0  0  0  0
    6.6650    0.7620   27.5950 C   0  0  0  0  0  0  0  0  0  0  0  0
    7.2120    0.9490   28.7860 C   0  0  2  0  0  0  0  0  0  0  0  0
    8.5500    1.3170   28.7330 O   0  0  0  0  0  0  0  0  0  0  0  0
    9.1790    1.6160   29.9410 C   0  0  0  0  0  0  0  0  0  0  0  0
    8.5550    2.6320   30.8770 C   0  0  0  0  0  0  0  0  0  0  0  0
    8.3760    1.1580   31.0630 C   0  0  0  0  0  0  0  0  0  0  0  0
   10.4870    1.0010   30.3230 C   0  0  0  0  0  0  0  0  0  0  0  0
    6.9980   -0.3520   29.2740 C   0  0  0  0  0  0  0  0  0  0  0  0
    5.9890   -0.4030   30.3690 C   0  0  0  0  0  0  0  0  0  0  0  0
    8.2020   -1.1820   29.4850 C   0  0  0  0  0  0  0  0  0  0  0  0
    6.8600   -2.5250   23.2840 C   0  0  0  0  0  0  0  0  0  0  0  0
    7.6370   -3.1220   22.1500 C   0  0  0  0  0  0  0  0  0  0  0  0
  1  2  1  0
  2  3  2  0
  2  4  1  0
  4  5  1  0
  5  6  1  0
  6  7  1  0
  7  8  1  0
  8  9  2  0
  8 10  1  0
 10 11  1  0
 12 11  1  6
 12 13  1  0
 13 14  1  0
 14 15  1  6
 16 15  1  0
 16 17  1  0
 16 18  1  0
 16 19  1  0
 12 20  1  0
 14 20  1  0
 20 21  1  0
 20 22  1  0
  7 23  1  0
  4 24  1  0
 23 24  1  0
M  END
