piperidine-amides-3789-covalent
     RDKit          3D

 25 27  0  0  0  0  0  0  0  0999 V2000
    7.1080   -3.3690   19.3300 C   0  0  0  0  0  0  0  0  0  0  0  0
    6.4010   -4.1750   20.3340 C   0  0  0  0  0  0  0  0  0  0  0  0
    5.3400   -4.7270   19.9580 O   0  0  0  0  0  0  0  0  0  0  0  0
    6.9430   -4.3690   21.6320 N   0  0  0  0  0  0  0  0  0  0  0  0
    6.4280   -5.4110   22.4350 C   0  0  0  0  0  0  0  0  0  0  0  0
    5.9810   -4.9830   23.7640 C   0  0  0  0  0  0  0  0  0  0  0  0
    6.5600   -3.7280   24.3170 C   0  0  0  0  0  0  0  0  0  0  0  0
    5.7420   -3.2220   25.4780 C   0  0  0  0  0  0  0  0  0  0  0  0
    4.4990   -3.2590   25.3760 O   0  0  0  0  0  0  0  0  0  0  0  0
    6.3130   -2.7060   26.6720 N   0  0  0  0  0  0  0  0  0  0  0  0
    6.5870   -1.3350   26.9720 C   0  0  2  0  0  0  0  0  0  0  0  0
    7.1600   -1.0640   28.3040 C   0  0  0  0  0  0  0  0  0  0  0  0
    6.1520   -1.4570   29.3620 C   0  0  0  0  0  0  0  0  0  0  0  0
    4.7570   -0.6190   28.9580 S   0  0  0  0  0  0  0  0  0  0  0  0
    3.7180   -1.6100   28.5130 O   0  0  0  0  0  0  0  0  0  0  0  0
    4.2390    0.1510   30.1210 O   0  0  0  0  0  0  0  0  0  0  0  0
    5.2370    0.4510   27.6200 C   0  0  1  0  0  0  0  0  0  0  0  0
    3.9890    1.3480   27.2770 C   0  0  0  0  0  0  0  0  0  0  0  0
    5.0300    2.1080   27.9380 C   0  0  2  0  0  0  0  0  0  0  0  0
    5.8040    2.3090   26.6210 C   0  0  0  0  0  0  0  0  0  0  0  0
    6.0470    3.6170   26.2340 O   0  0  0  0  0  0  0  0  0  0  0  0
    6.2050    1.3970   28.1020 C   0  0  0  0  0  0  0  0  0  0  0  0
    5.6870   -0.3410   26.5530 C   0  0  0  0  0  0  0  0  0  0  0  0
    6.6890   -2.6380   23.2480 C   0  0  0  0  0  0  0  0  0  0  0  0
    7.6170   -3.2160   22.2440 C   0  0  0  0  0  0  0  0  0  0  0  0
  1  2  1  0
  2  3  2  0
  2  4  1  0
  4  5  1  0
  5  6  1  0
  6  7  1  0
  7  8  1  0
  8  9  2  0
  8 10  1  0
 11 10  1  1
 11 12  1  0
 12 13  1  0
 14 13  1  0
 14 15  2  0
 14 16  2  0
 14 17  1  0
 17 18  1  6
 18 19  1  0
 19 20  1  6
 20 21  1  0
 17 22  1  0
 19 22  1  0
 11 23  1  0
 17 23  1  0
  7 24  1  0
  4 25  1  0
 24 25  1  0
M  END
