piperidine-amides-30492-covalent
     RDKit          3D

 26 28  0  0  0  0  0  0  0  0999 V2000
    6.9920   -3.3690   19.4420 C   0  0  0  0  0  0  0  0  0  0  0  0
    6.3500   -4.2580   20.4200 C   0  0  0  0  0  0  0  0  0  0  0  0
    5.4140   -4.9700   20.0120 O   0  0  0  0  0  0  0  0  0  0  0  0
    6.7710   -4.3670   21.7770 N   0  0  0  0  0  0  0  0  0  0  0  0
    6.5590   -5.5650   22.5610 C   0  0  0  0  0  0  0  0  0  0  0  0
    5.7600   -5.1220   23.7690 C   0  0  0  0  0  0  0  0  0  0  0  0
    5.7850   -3.6250   23.8970 C   0  0  0  0  0  0  0  0  0  0  0  0
    5.1270   -3.0240   25.1370 C   0  0  0  0  0  0  0  0  0  0  0  0
    4.5370   -1.9210   25.0340 O   0  0  0  0  0  0  0  0  0  0  0  0
    5.1020   -3.5930   26.4460 N   0  0  0  0  0  0  0  0  0  0  0  0
    5.0550   -2.7100   27.6400 C   0  0  0  0  0  0  0  0  0  0  0  0
    5.0760   -3.4900   28.9290 C   0  0  0  0  0  0  0  0  0  0  0  0
    5.9340   -4.6890   29.0770 C   0  0  0  0  0  0  0  0  0  0  0  0
    5.4830   -5.8840   28.3960 N   0  0  0  0  0  0  0  0  0  0  0  0
    4.0600   -6.0250   28.8480 C   0  0  0  0  0  0  0  0  0  0  0  0
    3.0360   -5.3630   28.2200 O   0  0  0  0  0  0  0  0  0  0  0  0
    3.6480   -6.8970   30.0170 C   0  0  0  0  0  0  0  0  0  0  0  0
    1.8990   -7.2460   30.2120 S   0  0  0  0  0  0  0  0  0  0  0  0
    2.3130   -8.2450   31.7240 C   0  0  0  0  0  0  0  0  0  0  0  0
    3.6520   -8.2500   31.9630 N   0  0  0  0  0  0  0  0  0  0  0  0
    4.5130   -7.5230   31.0600 C   0  0  0  0  0  0  0  0  0  0  0  0
    5.8980   -7.3760   31.0800 C   0  0  0  0  0  0  0  0  0  0  0  0
    5.7980   -5.8200   27.1180 C   0  0  0  0  0  0  0  0  0  0  0  0
    6.1560   -4.4420   26.5880 C   0  0  0  0  0  0  0  0  0  0  0  0
    7.2460   -3.2060   23.6100 C   0  0  0  0  0  0  0  0  0  0  0  0
    7.3960   -3.1800   22.3920 C   0  0  0  0  0  0  0  0  0  0  0  0
  1  2  1  0
  2  3  2  0
  2  4  1  0
  4  5  1  0
  5  6  1  0
  6  7  1  0
  7  8  1  0
  8  9  2  0
  8 10  1  0
 10 11  1  0
 11 12  1  0
 12 13  1  0
 13 14  1  0
 14 15  1  0
 15 16  2  0
 15 17  1  0
 17 18  1  0
 18 19  1  0
 19 20  2  0
 17 21  2  0
 20 21  1  0
 21 22  1  0
 14 23  1  0
 10 24  1  0
 23 24  1  0
  7 25  1  0
  4 26  1  0
 25 26  1  0
M  END
