piperidine-amides-548-covalent
     RDKit          3D

 27 29  0  0  0  0  0  0  0  0999 V2000
    7.1050   -3.3560   19.2930 C   0  0  0  0  0  0  0  0  0  0  0  0
    6.4130   -4.0980   20.3230 C   0  0  0  0  0  0  0  0  0  0  0  0
    5.3620   -4.7200   19.9630 O   0  0  0  0  0  0  0  0  0  0  0  0
    6.8730   -4.2110   21.6610 N   0  0  0  0  0  0  0  0  0  0  0  0
    7.7960   -3.1320   22.1660 C   0  0  0  0  0  0  0  0  0  0  0  0
    7.3270   -2.8450   23.6590 C   0  0  0  0  0  0  0  0  0  0  0  0
    6.1330   -3.7290   23.8030 C   0  0  0  0  0  0  0  0  0  0  0  0
    4.9430   -3.2590   24.7270 C   0  0  0  0  0  0  0  0  0  0  0  0
    3.9180   -3.3490   24.0790 O   0  0  0  0  0  0  0  0  0  0  0  0
    5.2470   -2.8990   25.8990 N   0  0  0  0  0  0  0  0  0  0  0  0
    5.2120   -2.4610   27.1730 C   0  0  0  0  0  0  0  0  0  0  0  0
    4.5820   -2.7000   28.3560 C   0  0  0  0  0  0  0  0  0  0  0  0
    4.2520   -1.8770   29.4250 C   0  0  0  0  0  0  0  0  0  0  0  0
    3.5260   -2.2780   30.6680 C   0  0  0  0  0  0  0  0  0  0  0  0
    3.1210   -3.8060   30.7110 C   0  0  0  0  0  0  0  0  0  0  0  0
    3.4970   -4.5840   29.5850 C   0  0  0  0  0  0  0  0  0  0  0  0
    3.1760   -5.9470   29.5630 C   0  0  0  0  0  0  0  0  0  0  0  0
    3.7640   -6.6590   30.5280 N   0  0  0  0  0  0  0  0  0  0  0  0
    3.2360   -7.1750   31.6620 N   0  0  0  0  0  0  0  0  0  0  0  0
    4.4310   -7.7970   32.1950 C   0  0  0  0  0  0  0  0  0  0  0  0
    4.4010   -8.5750   33.5490 C   0  0  0  0  0  0  0  0  0  0  0  0
    5.5720   -7.5820   31.3020 C   0  0  0  0  0  0  0  0  0  0  0  0
    5.1610   -6.8660   30.2500 C   0  0  0  0  0  0  0  0  0  0  0  0
    5.7900   -6.3900   29.1400 C   0  0  0  0  0  0  0  0  0  0  0  0
    4.1540   -4.1220   28.5070 C   0  0  0  0  0  0  0  0  0  0  0  0
    6.3390   -5.1830   23.7360 C   0  0  0  0  0  0  0  0  0  0  0  0
    6.7370   -5.4960   22.3360 C   0  0  0  0  0  0  0  0  0  0  0  0
  1  2  1  0
  2  3  2  0
  2  4  1  0
  4  5  1  0
  5  6  1  0
  6  7  1  0
  7  8  1  0
  8  9  2  0
  8 10  1  0
 10 11  1  0
 11 12  1  0
 12 13  2  0
 13 14  1  0
 14 15  2  0
 15 16  1  0
 16 17  1  0
 17 18  1  0
 18 19  1  0
 19 20  2  0
 20 21  1  0
 20 22  1  0
 18 23  1  0
 22 23  2  0
 23 24  1  0
 12 25  1  0
 16 25  2  0
  7 26  1  0
  4 27  1  0
 26 27  1  0
M  END
