piperidine-amides-27485-covalent
     RDKit          3D

 26 29  0  0  0  0  0  0  0  0999 V2000
    7.0520   -3.3620   19.3470 C   0  0  0  0  0  0  0  0  0  0  0  0
    6.4120   -4.2160   20.3520 C   0  0  0  0  0  0  0  0  0  0  0  0
    5.3810   -4.8370   19.9810 O   0  0  0  0  0  0  0  0  0  0  0  0
    6.9750   -4.3560   21.6290 N   0  0  0  0  0  0  0  0  0  0  0  0
    6.7770   -5.5670   22.4010 C   0  0  0  0  0  0  0  0  0  0  0  0
    6.1010   -5.1850   23.6860 C   0  0  0  0  0  0  0  0  0  0  0  0
    5.8820   -3.7020   23.7200 C   0  0  0  0  0  0  0  0  0  0  0  0
    5.1440   -3.2450   24.9100 C   0  0  0  0  0  0  0  0  0  0  0  0
    4.2170   -2.4350   24.7460 O   0  0  0  0  0  0  0  0  0  0  0  0
    5.3940   -3.6500   26.2080 N   0  0  0  0  0  0  0  0  0  0  0  0
    4.3250   -4.1120   27.0390 C   0  0  0  0  0  0  0  0  0  0  0  0
    4.7980   -4.3100   28.4710 C   0  0  0  0  0  0  0  0  0  0  0  0
    5.7980   -3.5880   29.0260 C   0  0  0  0  0  0  0  0  0  0  0  0
    5.7530   -2.2490   29.4110 C   0  0  0  0  0  0  0  0  0  0  0  0
    6.1940   -1.1880   28.7140 N   0  0  0  0  0  0  0  0  0  0  0  0
    5.9770   -0.1000   29.4290 C   0  0  0  0  0  0  0  0  0  0  0  0
    6.2170    1.2480   29.2350 C   0  0  0  0  0  0  0  0  0  0  0  0
    5.8610    2.1800   30.2120 C   0  0  0  0  0  0  0  0  0  0  0  0
    5.1950    1.8490   31.5550 C   0  0  0  0  0  0  0  0  0  0  0  0
    4.9690    0.3450   31.6800 C   0  0  0  0  0  0  0  0  0  0  0  0
    5.3930   -0.5500   30.5670 C   0  0  0  0  0  0  0  0  0  0  0  0
    5.2300   -1.9510   30.5830 O   0  0  0  0  0  0  0  0  0  0  0  0
    6.6490   -3.8920   27.9240 C   0  0  0  0  0  0  0  0  0  0  0  0
    6.4280   -3.0570   26.8710 C   0  0  0  0  0  0  0  0  0  0  0  0
    7.2290   -3.0250   23.6180 C   0  0  0  0  0  0  0  0  0  0  0  0
    7.7860   -3.3010   22.2380 C   0  0  0  0  0  0  0  0  0  0  0  0
  1  2  1  0
  2  3  2  0
  2  4  1  0
  4  5  1  0
  5  6  1  0
  6  7  1  0
  7  8  1  0
  8  9  2  0
  8 10  1  0
 10 11  1  0
 11 12  1  0
 12 13  1  0
 13 14  1  0
 14 15  2  0
 15 16  1  0
 16 17  2  0
 17 18  1  0
 18 19  2  0
 19 20  1  0
 16 21  1  0
 20 21  2  0
 14 22  1  0
 21 22  1  0
 13 23  1  0
 10 24  1  0
 23 24  1  0
  7 25  1  0
  4 26  1  0
 25 26  1  0
M  END
