piperidine-amides-12047-covalent
     RDKit          3D

 25 27  0  0  0  0  0  0  0  0999 V2000
    7.0610   -3.3500   19.3190 C   0  0  0  0  0  0  0  0  0  0  0  0
    6.3820   -4.1820   20.3010 C   0  0  0  0  0  0  0  0  0  0  0  0
    5.3660   -4.7960   19.9740 O   0  0  0  0  0  0  0  0  0  0  0  0
    6.9210   -4.3400   21.6230 N   0  0  0  0  0  0  0  0  0  0  0  0
    6.5250   -5.4610   22.4250 C   0  0  0  0  0  0  0  0  0  0  0  0
    5.8280   -4.9660   23.6620 C   0  0  0  0  0  0  0  0  0  0  0  0
    6.5870   -3.7590   24.2040 C   0  0  0  0  0  0  0  0  0  0  0  0
    5.8540   -3.1560   25.3470 C   0  0  0  0  0  0  0  0  0  0  0  0
    4.6260   -2.9310   25.3210 O   0  0  0  0  0  0  0  0  0  0  0  0
    6.5980   -2.8430   26.5070 N   0  0  0  0  0  0  0  0  0  0  0  0
    6.3720   -1.6170   27.2370 C   0  0  0  0  0  0  0  0  0  0  0  0
    5.4730   -0.7500   26.4250 C   0  0  0  0  0  0  0  0  0  0  0  0
    5.5360    0.1290   27.4020 N   0  0  0  0  0  0  0  0  0  0  0  0
    6.2670   -0.1710   28.4610 N   0  0  0  0  0  0  0  0  0  0  0  0
    6.2960    0.8350   29.5550 C   0  0  0  0  0  0  0  0  0  0  0  0
    5.4440    0.2570   30.5090 C   0  0  0  0  0  0  0  0  0  0  0  0
    5.9720    0.2830   31.7850 C   0  0  0  0  0  0  0  0  0  0  0  0
    6.5020    1.4390   32.2050 N   0  0  0  0  0  0  0  0  0  0  0  0
    7.0390    1.2280   33.5290 C   0  0  0  0  0  0  0  0  0  0  0  0
    7.4440    2.0270   31.2880 C   0  0  0  0  0  0  0  0  0  0  0  0
    7.4810    1.2520   30.1420 C   0  0  0  0  0  0  0  0  0  0  0  0
    6.9440   -1.4110   28.4690 C   0  0  0  0  0  0  0  0  0  0  0  0
    7.4210   -0.9550   29.7640 C   0  0  0  0  0  0  0  0  0  0  0  0
    6.8860   -2.6990   23.1640 C   0  0  0  0  0  0  0  0  0  0  0  0
    7.7120   -3.3080   22.2390 C   0  0  0  0  0  0  0  0  0  0  0  0
  1  2  1  0
  2  3  2  0
  2  4  1  0
  4  5  1  0
  5  6  1  0
  6  7  1  0
  7  8  1  0
  8  9  2  0
  8 10  1  0
 10 11  1  0
 11 12  1  0
 12 13  2  0
 13 14  1  0
 14 15  1  0
 15 16  1  0
 16 17  1  0
 17 18  1  0
 18 19  1  0
 18 20  1  0
 15 21  1  0
 20 21  1  0
 11 22  2  0
 14 22  1  0
 22 23  1  0
  7 24  1  0
  4 25  1  0
 24 25  1  0
M  END
