piperidine-amides-11553-covalent
     RDKit          3D

 25 27  0  0  0  0  0  0  0  0999 V2000
    7.0520   -3.3310   19.3240 C   0  0  0  0  0  0  0  0  0  0  0  0
    6.3630   -4.1510   20.3230 C   0  0  0  0  0  0  0  0  0  0  0  0
    5.3610   -4.7980   19.9710 O   0  0  0  0  0  0  0  0  0  0  0  0
    6.8310   -4.2680   21.6490 N   0  0  0  0  0  0  0  0  0  0  0  0
    6.7300   -5.5200   22.3720 C   0  0  0  0  0  0  0  0  0  0  0  0
    6.1120   -5.1960   23.7070 C   0  0  0  0  0  0  0  0  0  0  0  0
    6.1230   -3.7290   23.9820 C   0  0  0  0  0  0  0  0  0  0  0  0
    5.6720   -3.4110   25.3610 C   0  0  0  0  0  0  0  0  0  0  0  0
    4.4720   -3.6610   25.6760 O   0  0  0  0  0  0  0  0  0  0  0  0
    6.4610   -2.8190   26.3750 N   0  0  0  0  0  0  0  0  0  0  0  0
    5.8130   -1.7140   27.1290 C   0  0  2  0  0  0  0  0  0  0  0  0
    6.5450   -0.4950   26.8350 C   0  0  0  0  0  0  0  0  0  0  0  0
    5.9330    0.7610   27.2910 C   0  0  0  0  0  0  0  0  0  0  0  0
    4.9870    0.4900   28.4140 C   0  0  0  0  0  0  0  0  0  0  0  0
    4.6340    1.6180   29.1170 O   0  0  0  0  0  0  0  0  0  0  0  0
    4.4520   -0.8000   28.7430 N   0  0  0  0  0  0  0  0  0  0  0  0
    5.5920   -1.6970   28.5330 C   0  0  2  0  0  0  0  0  0  0  0  0
    6.6490   -1.2200   29.4450 C   0  0  0  0  0  0  0  0  0  0  0  0
    7.9440   -1.3050   29.2600 C   0  0  0  0  0  0  0  0  0  0  0  0
    8.5250   -0.7390   30.3380 C   0  0  0  0  0  0  0  0  0  0  0  0
    7.5810   -0.2990   31.2080 N   0  0  0  0  0  0  0  0  0  0  0  0
    6.3720   -0.6090   30.6410 N   0  0  0  0  0  0  0  0  0  0  0  0
    5.0800   -0.3400   31.2050 C   0  0  0  0  0  0  0  0  0  0  0  0
    7.4230   -3.0520   23.6740 C   0  0  0  0  0  0  0  0  0  0  0  0
    7.7010   -3.2360   22.2020 C   0  0  0  0  0  0  0  0  0  0  0  0
  1  2  1  0
  2  3  2  0
  2  4  1  0
  4  5  1  0
  5  6  1  0
  6  7  1  0
  7  8  1  0
  8  9  2  0
  8 10  1  0
 11 10  1  1
 11 12  1  0
 12 13  1  0
 13 14  1  0
 14 15  2  0
 14 16  1  0
 11 17  1  0
 16 17  1  0
 17 18  1  1
 18 19  2  0
 19 20  1  0
 20 21  2  0
 18 22  1  0
 21 22  1  0
 22 23  1  0
  7 24  1  0
  4 25  1  0
 24 25  1  0
M  END
