piperidine-amides-13052-covalent
     RDKit          3D

 23 24  0  0  0  0  0  0  0  0999 V2000
    7.0800   -3.2570   19.2300 C   0  0  0  0  0  0  0  0  0  0  0  0
    6.3250   -4.0280   20.2440 C   0  0  0  0  0  0  0  0  0  0  0  0
    5.2540   -4.5380   19.8710 O   0  0  0  0  0  0  0  0  0  0  0  0
    6.8140   -4.2180   21.5460 N   0  0  0  0  0  0  0  0  0  0  0  0
    7.5540   -3.1860   22.2080 C   0  0  0  0  0  0  0  0  0  0  0  0
    7.1740   -2.9340   23.6050 C   0  0  0  0  0  0  0  0  0  0  0  0
    6.3910   -4.0060   24.2690 C   0  0  0  0  0  0  0  0  0  0  0  0
    5.7290   -3.4750   25.5020 C   0  0  0  0  0  0  0  0  0  0  0  0
    4.5170   -3.1910   25.4510 O   0  0  0  0  0  0  0  0  0  0  0  0
    6.4700   -3.2900   26.6910 N   0  0  0  0  0  0  0  0  0  0  0  0
    5.9190   -3.2430   28.0750 C   0  0  0  0  0  0  0  0  0  0  0  0
    5.3990   -4.5440   28.6350 C   0  0  0  0  0  0  0  0  0  0  0  0
    4.0130   -4.9420   28.4370 C   0  0  0  0  0  0  0  0  0  0  0  0
    3.4130   -6.1100   28.8820 C   0  0  0  0  0  0  0  0  0  0  0  0
    2.5790   -6.7730   28.2430 O   0  0  0  0  0  0  0  0  0  0  0  0
    3.8640   -6.4660   30.1750 N   0  0  0  0  0  0  0  0  0  0  0  0
    3.2430   -7.6350   30.7710 C   0  0  0  0  0  0  0  0  0  0  0  0
    5.1740   -6.1930   30.3440 C   0  0  0  0  0  0  0  0  0  0  0  0
    5.8130   -6.5800   31.5450 O   0  0  0  0  0  0  0  0  0  0  0  0
    5.9500   -5.5410   29.3460 N   0  0  0  0  0  0  0  0  0  0  0  0
    6.5600   -6.4280   28.3960 C   0  0  0  0  0  0  0  0  0  0  0  0
    5.5200   -4.7990   23.3700 C   0  0  0  0  0  0  0  0  0  0  0  0
    6.3090   -5.3100   22.3340 C   0  0  0  0  0  0  0  0  0  0  0  0
  1  2  1  0
  2  3  2  0
  2  4  1  0
  4  5  1  0
  5  6  1  0
  6  7  1  0
  7  8  1  0
  8  9  2  0
  8 10  1  0
 10 11  1  0
 11 12  1  0
 12 13  2  0
 13 14  1  0
 14 15  2  0
 14 16  1  0
 16 17  1  0
 16 18  1  0
 18 19  2  0
 12 20  1  0
 18 20  1  0
 20 21  1  0
  7 22  1  0
  4 23  1  0
 22 23  1  0
M  END
