piperidine-amides-15095-covalent
     RDKit          3D

 21 22  0  0  0  0  0  0  0  0999 V2000
    7.0910   -3.2720   19.2400 C   0  0  0  0  0  0  0  0  0  0  0  0
    6.3530   -4.0360   20.2460 C   0  0  0  0  0  0  0  0  0  0  0  0
    5.3030   -4.6060   19.9040 O   0  0  0  0  0  0  0  0  0  0  0  0
    6.8540   -4.1500   21.5630 N   0  0  0  0  0  0  0  0  0  0  0  0
    7.6930   -3.1160   22.0980 C   0  0  0  0  0  0  0  0  0  0  0  0
    7.1200   -2.6320   23.3890 C   0  0  0  0  0  0  0  0  0  0  0  0
    6.8760   -3.8650   24.2270 C   0  0  0  0  0  0  0  0  0  0  0  0
    6.2560   -3.4580   25.5260 C   0  0  0  0  0  0  0  0  0  0  0  0
    5.1430   -2.9210   25.4650 O   0  0  0  0  0  0  0  0  0  0  0  0
    6.9840   -3.7270   26.6880 N   0  0  0  0  0  0  0  0  0  0  0  0
    7.4560   -5.0500   26.9510 C   0  0  1  0  0  0  0  0  0  0  0  0
    8.4690   -5.2000   27.9050 C   0  0  0  0  0  0  0  0  0  0  0  0
    6.3120   -5.7780   27.5390 C   0  0  0  0  0  0  0  0  0  0  0  0
    4.9930   -5.6400   27.9450 C   0  0  0  0  0  0  0  0  0  0  0  0
    4.9150   -6.7200   28.9800 C   0  0  0  0  0  0  0  0  0  0  0  0
    3.4940   -7.2910   29.2030 C   0  0  0  0  0  0  0  0  0  0  0  0
    2.7390   -7.4790   27.9370 C   0  0  0  0  0  0  0  0  0  0  0  0
    2.5950   -6.0720   27.4350 C   0  0  0  0  0  0  0  0  0  0  0  0
    4.0020   -5.6370   26.9620 C   0  0  0  0  0  0  0  0  0  0  0  0
    5.8940   -4.7740   23.5230 C   0  0  0  0  0  0  0  0  0  0  0  0
    6.5050   -5.2740   22.3940 C   0  0  0  0  0  0  0  0  0  0  0  0
  1  2  1  0
  2  3  2  0
  2  4  1  0
  4  5  1  0
  5  6  1  0
  6  7  1  0
  7  8  1  0
  8  9  2  0
  8 10  1  0
 10 11  1  0
 11 12  1  1
 11 13  1  0
 13 14  1  0
 14 15  1  0
 15 16  1  0
 16 17  1  0
 17 18  1  0
 14 19  1  0
 18 19  1  0
  7 20  1  0
  4 21  1  0
 20 21  1  0
M  END
