piperidine-amides-28704-covalent
     RDKit          3D

 25 27  0  0  0  0  0  0  0  0999 V2000
    6.9060   -3.4160   19.4710 C   0  0  0  0  0  0  0  0  0  0  0  0
    6.2790   -4.3530   20.4150 C   0  0  0  0  0  0  0  0  0  0  0  0
    5.3340   -5.0250   19.9910 O   0  0  0  0  0  0  0  0  0  0  0  0
    6.7350   -4.5230   21.7540 N   0  0  0  0  0  0  0  0  0  0  0  0
    6.3230   -5.7130   22.4610 C   0  0  0  0  0  0  0  0  0  0  0  0
    6.0430   -5.4660   23.9390 C   0  0  0  0  0  0  0  0  0  0  0  0
    5.5870   -4.0260   24.1400 C   0  0  0  0  0  0  0  0  0  0  0  0
    4.9520   -3.6820   25.5500 C   0  0  0  0  0  0  0  0  0  0  0  0
    4.0490   -2.8500   25.4410 O   0  0  0  0  0  0  0  0  0  0  0  0
    5.3510   -4.2650   26.8460 N   0  0  0  0  0  0  0  0  0  0  0  0
    5.6440   -5.5950   26.7340 C   0  0  0  0  0  0  0  0  0  0  0  0
    4.7760   -6.0140   27.7070 C   0  0  0  0  0  0  0  0  0  0  0  0
    4.0530   -5.0880   28.3950 C   0  0  0  0  0  0  0  0  0  0  0  0
    2.9280   -5.6170   29.6660 Cl  0  0  0  0  0  0  0  0  0  0  0  0
    4.1460   -3.7160   28.1430 C   0  0  0  0  0  0  0  0  0  0  0  0
    5.1290   -3.3090   27.0540 C   0  0  0  0  0  0  0  0  0  0  0  0
    5.9920   -4.3490   26.2530 C   0  0  0  0  0  0  0  0  0  0  0  0
    6.8250   -3.7950   25.3960 N   0  0  0  0  0  0  0  0  0  0  0  0
    6.9030   -2.6440   26.2620 C   0  0  0  0  0  0  0  0  0  0  0  0
    7.0660   -1.9900   25.2060 O   0  0  0  0  0  0  0  0  0  0  0  0
    6.6520   -3.8710   27.1570 C   0  0  0  0  0  0  0  0  0  0  0  0
    6.7190   -3.5220   28.6660 C   0  0  0  0  0  0  0  0  0  0  0  0
    7.3130   -5.1150   27.0050 C   0  0  0  0  0  0  0  0  0  0  0  0
    6.8080   -3.1970   23.8010 C   0  0  0  0  0  0  0  0  0  0  0  0
    7.3140   -3.3730   22.3910 C   0  0  0  0  0  0  0  0  0  0  0  0
  1  2  1  0
  2  3  2  0
  2  4  1  0
  4  5  1  0
  5  6  1  0
  6  7  1  0
  7  8  1  0
  8  9  2  0
  8 10  1  0
 10 11  1  0
 11 12  2  0
 12 13  1  0
 13 14  1  0
 13 15  2  0
 15 16  1  0
 11 17  1  0
 16 17  2  0
 17 18  1  0
 18 19  1  0
 19 20  2  0
 10 21  1  0
 19 21  1  0
 21 22  1  0
 21 23  1  0
  7 24  1  0
  4 25  1  0
 24 25  1  0
M  END
