piperidine-amides-3034-covalent
     RDKit          3D

 23 25  0  0  0  0  0  0  0  0999 V2000
    7.0570   -3.3290   19.3570 C   0  0  0  0  0  0  0  0  0  0  0  0
    6.3530   -4.1610   20.3300 C   0  0  0  0  0  0  0  0  0  0  0  0
    5.3850   -4.8340   19.9780 O   0  0  0  0  0  0  0  0  0  0  0  0
    6.8150   -4.2300   21.6920 N   0  0  0  0  0  0  0  0  0  0  0  0
    7.7160   -3.2110   22.1780 C   0  0  0  0  0  0  0  0  0  0  0  0
    7.4040   -2.9110   23.6070 C   0  0  0  0  0  0  0  0  0  0  0  0
    6.0930   -3.6030   23.9120 C   0  0  0  0  0  0  0  0  0  0  0  0
    5.6380   -3.2000   25.2720 C   0  0  0  0  0  0  0  0  0  0  0  0
    4.4330   -3.1100   25.5690 O   0  0  0  0  0  0  0  0  0  0  0  0
    6.6120   -2.9180   26.2520 N   0  0  0  0  0  0  0  0  0  0  0  0
    6.5490   -1.7070   27.0410 C   0  0  0  0  0  0  0  0  0  0  0  0
    7.0640   -1.6280   28.4570 C   0  0  0  0  0  0  0  0  0  0  0  0
    6.9980   -0.4580   29.2120 C   0  0  0  0  0  0  0  0  0  0  0  0
    6.4370    0.7140   28.6650 C   0  0  0  0  0  0  0  0  0  0  0  0
    5.9590    0.6780   27.3750 C   0  0  0  0  0  0  0  0  0  0  0  0
    5.9620   -0.4370   26.4950 C   0  0  0  0  0  0  0  0  0  0  0  0
    5.4460   -0.3160   25.2190 C   0  0  0  0  0  0  0  0  0  0  0  0
    5.1340    1.0140   25.3540 N   0  0  0  0  0  0  0  0  0  0  0  0
    4.1430    1.4850   24.4350 C   0  0  0  0  0  0  0  0  0  0  0  0
    5.3330    1.6940   26.5190 C   0  0  0  0  0  0  0  0  0  0  0  0
    5.0050    2.9980   26.7620 O   0  0  0  0  0  0  0  0  0  0  0  0
    6.0620   -5.0490   23.7180 C   0  0  0  0  0  0  0  0  0  0  0  0
    6.6310   -5.4130   22.4970 C   0  0  0  0  0  0  0  0  0  0  0  0
  1  2  1  0
  2  3  2  0
  2  4  1  0
  4  5  1  0
  5  6  1  0
  6  7  1  0
  7  8  1  0
  8  9  2  0
  8 10  1  0
 10 11  1  0
 11 12  2  0
 12 13  1  0
 13 14  2  0
 14 15  1  0
 11 16  1  0
 15 16  2  0
 16 17  1  0
 17 18  1  0
 18 19  1  0
 15 20  1  0
 18 20  1  0
 20 21  2  0
  7 22  1  0
  4 23  1  0
 22 23  1  0
M  END
