piperidine-amides-18812-covalent
     RDKit          3D

 21 22  0  0  0  0  0  0  0  0999 V2000
    7.0720   -3.3580   19.4660 C   0  0  0  0  0  0  0  0  0  0  0  0
    6.3980   -4.2050   20.4320 C   0  0  0  0  0  0  0  0  0  0  0  0
    5.4590   -4.9560   20.0130 O   0  0  0  0  0  0  0  0  0  0  0  0
    6.7860   -4.2150   21.7960 N   0  0  0  0  0  0  0  0  0  0  0  0
    6.7330   -5.5460   22.4780 C   0  0  0  0  0  0  0  0  0  0  0  0
    6.0350   -5.2290   23.8710 C   0  0  0  0  0  0  0  0  0  0  0  0
    6.3710   -3.7980   24.1980 C   0  0  0  0  0  0  0  0  0  0  0  0
    5.5060   -3.2060   25.4200 C   0  0  0  0  0  0  0  0  0  0  0  0
    4.6970   -2.4330   24.9370 O   0  0  0  0  0  0  0  0  0  0  0  0
    5.7950   -3.6370   26.6080 N   0  0  0  0  0  0  0  0  0  0  0  0
    6.3250   -4.0740   27.7580 C   0  0  0  0  0  0  0  0  0  0  0  0
    6.6040   -5.2780   28.3160 C   0  0  0  0  0  0  0  0  0  0  0  0
    5.3020   -5.5400   28.8840 N   0  0  0  0  0  0  0  0  0  0  0  0
    5.1160   -6.0480   30.1090 C   0  0  0  0  0  0  0  0  0  0  0  0
    4.3910   -7.2920   29.7830 C   0  0  0  0  0  0  0  0  0  0  0  0
    4.0240   -7.8780   30.9930 O   0  0  0  0  0  0  0  0  0  0  0  0
    4.7900   -4.1600   28.9100 C   0  0  2  0  0  0  0  0  0  0  0  0
    3.4540   -4.1390   28.4920 C   0  0  0  0  0  0  0  0  0  0  0  0
    4.6480   -3.5660   27.4830 C   0  0  0  0  0  0  0  0  0  0  0  0
    7.6880   -3.3550   23.8760 C   0  0  0  0  0  0  0  0  0  0  0  0
    7.6790   -3.2430   22.3220 C   0  0  0  0  0  0  0  0  0  0  0  0
  1  2  1  0
  2  3  2  0
  2  4  1  0
  4  5  1  0
  5  6  1  0
  6  7  1  0
  7  8  1  0
  8  9  2  0
  8 10  1  0
 10 11  1  0
 11 12  1  0
 12 13  1  0
 13 14  1  0
 14 15  1  0
 15 16  1  0
 13 17  1  0
 17 18  1  6
 10 19  1  0
 17 19  1  0
  7 20  1  0
  4 21  1  0
 20 21  1  0
M  END
