piperidine-amides-7051-covalent
     RDKit          3D

 21 22  0  0  0  0  0  0  0  0999 V2000
    7.1260   -3.2710   19.2530 C   0  0  0  0  0  0  0  0  0  0  0  0
    6.3390   -4.0250   20.2440 C   0  0  0  0  0  0  0  0  0  0  0  0
    5.2880   -4.6080   19.9050 O   0  0  0  0  0  0  0  0  0  0  0  0
    6.7780   -4.1370   21.5680 N   0  0  0  0  0  0  0  0  0  0  0  0
    7.6970   -3.1460   22.1070 C   0  0  0  0  0  0  0  0  0  0  0  0
    7.4990   -3.0940   23.6250 C   0  0  0  0  0  0  0  0  0  0  0  0
    6.0940   -3.5880   23.8660 C   0  0  0  0  0  0  0  0  0  0  0  0
    5.6000   -3.2510   25.2110 C   0  0  0  0  0  0  0  0  0  0  0  0
    4.3660   -3.2920   25.4030 O   0  0  0  0  0  0  0  0  0  0  0  0
    6.5000   -2.8990   26.2400 N   0  0  0  0  0  0  0  0  0  0  0  0
    6.5190   -1.5680   26.7650 C   0  0  0  0  0  0  0  0  0  0  0  0
    5.8610   -1.5910   28.1280 C   0  0  0  0  0  0  0  0  0  0  0  0
    5.0590   -2.5810   28.6240 C   0  0  0  0  0  0  0  0  0  0  0  0
    4.4000   -2.3090   29.7800 F   0  0  0  0  0  0  0  0  0  0  0  0
    4.0860   -2.9850   27.6990 F   0  0  0  0  0  0  0  0  0  0  0  0
    5.8690   -3.7250   28.7630 F   0  0  0  0  0  0  0  0  0  0  0  0
    6.8760   -1.1440   29.2030 C   0  0  0  0  0  0  0  0  0  0  0  0
    6.3130    0.0900   29.3880 C   0  0  0  0  0  0  0  0  0  0  0  0
    5.3820   -0.2010   28.4640 C   0  0  0  0  0  0  0  0  0  0  0  0
    6.1070   -5.1060   23.6920 C   0  0  0  0  0  0  0  0  0  0  0  0
    6.6380   -5.3730   22.3090 C   0  0  0  0  0  0  0  0  0  0  0  0
  1  2  1  0
  2  3  2  0
  2  4  1  0
  4  5  1  0
  5  6  1  0
  6  7  1  0
  7  8  1  0
  8  9  2  0
  8 10  1  0
 10 11  1  0
 12 11  1  0
 12 13  1  0
 13 14  1  0
 13 15  1  0
 13 16  1  0
 12 17  1  0
 17 18  1  0
 12 19  1  0
 18 19  1  0
  7 20  1  0
  4 21  1  0
 20 21  1  0
M  END
