piperidine-amides-30424-covalent
     RDKit          3D

 26 28  0  0  0  0  0  0  0  0999 V2000
    7.0510   -3.3620   19.3630 C   0  0  0  0  0  0  0  0  0  0  0  0
    6.3930   -4.2320   20.3370 C   0  0  0  0  0  0  0  0  0  0  0  0
    5.3780   -4.8540   19.9840 O   0  0  0  0  0  0  0  0  0  0  0  0
    6.9030   -4.4360   21.6360 N   0  0  0  0  0  0  0  0  0  0  0  0
    6.5270   -5.5820   22.4070 C   0  0  0  0  0  0  0  0  0  0  0  0
    5.6190   -5.0310   23.4770 C   0  0  0  0  0  0  0  0  0  0  0  0
    6.2540   -3.9530   24.3260 C   0  0  0  0  0  0  0  0  0  0  0  0
    5.2920   -3.4310   25.3450 C   0  0  0  0  0  0  0  0  0  0  0  0
    4.3440   -2.6940   24.9580 O   0  0  0  0  0  0  0  0  0  0  0  0
    5.3410   -3.6800   26.7440 N   0  0  0  0  0  0  0  0  0  0  0  0
    4.1270   -3.6990   27.5810 C   0  0  0  0  0  0  0  0  0  0  0  0
    4.2770   -4.4760   28.8690 C   0  0  0  0  0  0  0  0  0  0  0  0
    5.5420   -4.8270   29.1560 N   0  0  0  0  0  0  0  0  0  0  0  0
    5.9330   -6.1240   29.5880 C   0  0  0  0  0  0  0  0  0  0  0  0
    6.7650   -6.8500   29.0330 O   0  0  0  0  0  0  0  0  0  0  0  0
    5.1890   -6.4820   30.8570 C   0  0  0  0  0  0  0  0  0  0  0  0
    3.9330   -5.6600   31.1510 C   0  0  0  0  0  0  0  0  0  0  0  0
    3.2580   -6.0580   32.4120 C   0  0  0  0  0  0  0  0  0  0  0  0
    3.7230   -7.0540   33.2150 C   0  0  0  0  0  0  0  0  0  0  0  0
    4.8540   -7.8090   32.9660 C   0  0  0  0  0  0  0  0  0  0  0  0
    5.3530   -9.0780   34.0980 Cl  0  0  0  0  0  0  0  0  0  0  0  0
    5.6150   -7.4840   31.7010 C   0  0  0  0  0  0  0  0  0  0  0  0
    6.6380   -4.3610   28.3840 C   0  0  0  0  0  0  0  0  0  0  0  0
    6.4900   -3.2430   27.3940 C   0  0  0  0  0  0  0  0  0  0  0  0
    6.8380   -2.8550   23.4730 C   0  0  0  0  0  0  0  0  0  0  0  0
    7.5590   -3.3360   22.2680 C   0  0  0  0  0  0  0  0  0  0  0  0
  1  2  1  0
  2  3  2  0
  2  4  1  0
  4  5  1  0
  5  6  1  0
  6  7  1  0
  7  8  1  0
  8  9  2  0
  8 10  1  0
 10 11  1  0
 11 12  1  0
 12 13  1  0
 13 14  1  0
 14 15  2  0
 14 16  1  0
 16 17  2  0
 17 18  1  0
 18 19  2  0
 19 20  1  0
 20 21  1  0
 16 22  1  0
 20 22  2  0
 13 23  1  0
 10 24  1  0
 23 24  1  0
  7 25  1  0
  4 26  1  0
 25 26  1  0
M  END
