piperidine-amides-25932-covalent
     RDKit          3D

 25 28  0  0  0  0  0  0  0  0999 V2000
    7.0690   -3.3840   19.3930 C   0  0  0  0  0  0  0  0  0  0  0  0
    6.3850   -4.2370   20.3670 C   0  0  0  0  0  0  0  0  0  0  0  0
    5.3790   -4.8630   19.9920 O   0  0  0  0  0  0  0  0  0  0  0  0
    6.8640   -4.4110   21.6850 N   0  0  0  0  0  0  0  0  0  0  0  0
    6.7230   -5.6680   22.3940 C   0  0  0  0  0  0  0  0  0  0  0  0
    6.2190   -5.2840   23.7540 C   0  0  0  0  0  0  0  0  0  0  0  0
    6.2420   -3.8000   23.8830 C   0  0  0  0  0  0  0  0  0  0  0  0
    5.7510   -3.2670   25.1790 C   0  0  0  0  0  0  0  0  0  0  0  0
    4.9940   -2.2590   25.1750 O   0  0  0  0  0  0  0  0  0  0  0  0
    6.0140   -3.8070   26.4540 N   0  0  0  0  0  0  0  0  0  0  0  0
    6.3780   -2.8360   27.4970 C   0  0  0  0  0  0  0  0  0  0  0  0
    6.7170   -3.5220   28.7680 C   0  0  0  0  0  0  0  0  0  0  0  0
    5.8150   -4.5800   29.2040 C   0  0  0  0  0  0  0  0  0  0  0  0
    4.5540   -4.0040   29.8170 C   0  0  0  0  0  0  0  0  0  0  0  0
    4.8840   -2.6180   29.8560 N   0  0  0  0  0  0  0  0  0  0  0  0
    3.9980   -1.8420   30.3350 N   0  0  0  0  0  0  0  0  0  0  0  0
    2.9600   -2.5540   30.6850 C   0  0  0  0  0  0  0  0  0  0  0  0
    1.6420   -2.2300   31.2870 C   0  0  0  0  0  0  0  0  0  0  0  0
    1.5660   -1.7510   32.4690 C   0  0  0  0  0  0  0  0  0  0  0  0
    1.3680   -3.0210   32.7200 C   0  0  0  0  0  0  0  0  0  0  0  0
    3.2770   -3.8460   30.3850 N   0  0  0  0  0  0  0  0  0  0  0  0
    5.6230   -5.4440   28.1970 C   0  0  0  0  0  0  0  0  0  0  0  0
    5.0900   -4.8350   26.9100 C   0  0  0  0  0  0  0  0  0  0  0  0
    7.6410   -3.3310   23.4740 C   0  0  0  0  0  0  0  0  0  0  0  0
    7.6510   -3.2980   22.2610 C   0  0  0  0  0  0  0  0  0  0  0  0
  1  2  1  0
  2  3  2  0
  2  4  1  0
  4  5  1  0
  5  6  1  0
  6  7  1  0
  7  8  1  0
  8  9  2  0
  8 10  1  0
 10 11  1  0
 11 12  1  0
 12 13  1  0
 13 14  1  0
 14 15  2  0
 15 16  1  0
 16 17  1  0
 17 18  1  0
 18 19  1  0
 18 20  1  0
 19 20  1  0
 14 21  1  0
 17 21  2  0
 13 22  1  0
 10 23  1  0
 22 23  1  0
  7 24  1  0
  4 25  1  0
 24 25  1  0
M  END
