piperidine-amides-8106-covalent
     RDKit          3D

 25 26  0  0  0  0  0  0  0  0999 V2000
    7.1290   -3.2940   19.2500 C   0  0  0  0  0  0  0  0  0  0  0  0
    6.3550   -4.0360   20.2390 C   0  0  0  0  0  0  0  0  0  0  0  0
    5.2790   -4.5470   19.8850 O   0  0  0  0  0  0  0  0  0  0  0  0
    6.8680   -4.2030   21.5460 N   0  0  0  0  0  0  0  0  0  0  0  0
    6.3930   -5.3090   22.3150 C   0  0  0  0  0  0  0  0  0  0  0  0
    5.5620   -4.7720   23.4420 C   0  0  0  0  0  0  0  0  0  0  0  0
    6.4510   -3.8300   24.2260 C   0  0  0  0  0  0  0  0  0  0  0  0
    5.7310   -3.3250   25.4500 C   0  0  0  0  0  0  0  0  0  0  0  0
    4.5740   -2.9450   25.2780 O   0  0  0  0  0  0  0  0  0  0  0  0
    6.4130   -3.3180   26.6700 N   0  0  0  0  0  0  0  0  0  0  0  0
    5.9330   -3.9480   27.8730 C   0  0  0  0  0  0  0  0  0  0  0  0
    5.9290   -5.3600   27.8920 C   0  0  2  0  0  0  0  0  0  0  0  0
    6.0050   -6.0000   26.6970 C   0  0  0  0  0  0  0  0  0  0  0  0
    4.8920   -6.7810   26.4790 O   0  0  0  0  0  0  0  0  0  0  0  0
    4.7560   -6.0760   28.4440 C   0  0  0  0  0  0  0  0  0  0  0  0
    4.3280   -6.0700   29.8830 C   0  0  0  0  0  0  0  0  0  0  0  0
    3.1760   -5.1310   30.2990 C   0  0  0  0  0  0  0  0  0  0  0  0
    2.7340   -5.1110   31.6950 C   0  0  0  0  0  0  0  0  0  0  0  0
    3.4590   -6.0290   32.6130 C   0  0  0  0  0  0  0  0  0  0  0  0
    3.0630   -6.0770   34.1090 C   0  0  0  0  0  0  0  0  0  0  0  0
    4.4910   -6.8600   32.1980 C   0  0  0  0  0  0  0  0  0  0  0  0
    5.3290   -7.9820   33.4850 Br  0  0  0  0  0  0  0  0  0  0  0  0
    4.9120   -6.8750   30.8590 C   0  0  0  0  0  0  0  0  0  0  0  0
    6.9230   -2.6680   23.4160 C   0  0  0  0  0  0  0  0  0  0  0  0
    7.6270   -3.1650   22.1880 C   0  0  0  0  0  0  0  0  0  0  0  0
  1  2  1  0
  2  3  2  0
  2  4  1  0
  4  5  1  0
  5  6  1  0
  6  7  1  0
  7  8  1  0
  8  9  2  0
  8 10  1  0
 10 11  1  0
 12 11  1  6
 12 13  1  0
 13 14  1  0
 12 15  1  0
 15 16  1  0
 16 17  2  0
 17 18  1  0
 18 19  2  0
 19 20  1  0
 19 21  1  0
 21 22  1  0
 16 23  1  0
 21 23  2  0
  7 24  1  0
  4 25  1  0
 24 25  1  0
M  END
