piperidine-amides-19039-covalent
     RDKit          3D

 22 24  0  0  0  0  0  0  0  0999 V2000
    7.1270   -3.3610   19.2690 C   0  0  0  0  0  0  0  0  0  0  0  0
    6.3760   -4.0460   20.2920 C   0  0  0  0  0  0  0  0  0  0  0  0
    5.3060   -4.6260   19.9270 O   0  0  0  0  0  0  0  0  0  0  0  0
    6.8090   -4.1530   21.6330 N   0  0  0  0  0  0  0  0  0  0  0  0
    6.6210   -5.4340   22.3290 C   0  0  0  0  0  0  0  0  0  0  0  0
    5.6150   -4.9440   23.4290 C   0  0  0  0  0  0  0  0  0  0  0  0
    6.2520   -3.7590   24.1350 C   0  0  0  0  0  0  0  0  0  0  0  0
    5.2020   -3.2070   25.1940 C   0  0  0  0  0  0  0  0  0  0  0  0
    4.0700   -3.4190   24.7930 O   0  0  0  0  0  0  0  0  0  0  0  0
    5.7690   -2.6770   26.2020 N   0  0  0  0  0  0  0  0  0  0  0  0
    6.5220   -2.2160   27.1430 C   0  0  0  0  0  0  0  0  0  0  0  0
    5.6840   -1.5840   27.8850 C   0  0  0  0  0  0  0  0  0  0  0  0
    4.6240   -2.0430   26.9830 C   0  0  1  0  0  0  0  0  0  0  0  0
    3.6970   -1.0710   26.3660 C   0  0  0  0  0  0  0  0  0  0  0  0
    3.9460   -3.1410   27.7510 C   0  0  0  0  0  0  0  0  0  0  0  0
    3.0520   -2.5740   28.6890 C   0  0  0  0  0  0  0  0  0  0  0  0
    2.1360   -3.1100   29.6900 C   0  0  0  0  0  0  0  0  0  0  0  0
    2.4000   -4.6410   29.4610 C   0  0  0  0  0  0  0  0  0  0  0  0
    3.3790   -5.2430   28.4330 C   0  0  0  0  0  0  0  0  0  0  0  0
    4.1040   -4.5050   27.6300 C   0  0  0  0  0  0  0  0  0  0  0  0
    6.8360   -2.6450   23.2600 C   0  0  0  0  0  0  0  0  0  0  0  0
    7.6160   -3.1470   22.2700 C   0  0  0  0  0  0  0  0  0  0  0  0
  1  2  1  0
  2  3  2  0
  2  4  1  0
  4  5  1  0
  5  6  1  0
  6  7  1  0
  7  8  1  0
  8  9  2  0
  8 10  1  0
 10 11  1  0
 11 12  1  0
 10 13  1  0
 12 13  1  0
 13 14  1  6
 13 15  1  0
 15 16  2  0
 16 17  1  0
 17 18  2  0
 18 19  1  0
 15 20  1  0
 19 20  2  0
  7 21  1  0
  4 22  1  0
 21 22  1  0
M  END
