piperidine-amides-30229-covalent
     RDKit          3D

 27 29  0  0  0  0  0  0  0  0999 V2000
    7.0090   -3.3470   19.4080 C   0  0  0  0  0  0  0  0  0  0  0  0
    6.3550   -4.2080   20.3940 C   0  0  0  0  0  0  0  0  0  0  0  0
    5.4390   -4.9430   20.0130 O   0  0  0  0  0  0  0  0  0  0  0  0
    6.7920   -4.2300   21.7790 N   0  0  0  0  0  0  0  0  0  0  0  0
    7.6570   -3.1830   22.2960 C   0  0  0  0  0  0  0  0  0  0  0  0
    7.4880   -2.9990   23.7890 C   0  0  0  0  0  0  0  0  0  0  0  0
    6.1170   -3.5260   24.1660 C   0  0  0  0  0  0  0  0  0  0  0  0
    5.6150   -3.0680   25.5260 C   0  0  0  0  0  0  0  0  0  0  0  0
    4.6490   -2.2830   25.5880 O   0  0  0  0  0  0  0  0  0  0  0  0
    6.1850   -3.5180   26.7700 N   0  0  0  0  0  0  0  0  0  0  0  0
    6.4710   -2.6300   27.9200 C   0  0  0  0  0  0  0  0  0  0  0  0
    6.5200   -1.4740   26.8750 C   0  0  0  0  0  0  0  0  0  0  0  0
    6.8250   -0.2150   27.7210 C   0  0  0  0  0  0  0  0  0  0  0  0
    7.0750    0.0810   29.1840 N   0  0  0  0  0  0  0  0  0  0  0  0
    6.9160   -1.1580   29.5250 C   0  0  0  0  0  0  0  0  0  0  0  0
    6.6950   -1.5690   28.3740 N   0  0  0  0  0  0  0  0  0  0  0  0
    5.9320   -4.8660   27.2160 C   0  0  1  0  0  0  0  0  0  0  0  0
    6.4410   -5.3170   28.5140 C   0  0  0  0  0  0  0  0  0  0  0  0
    4.6230   -5.1950   27.2970 C   0  0  0  0  0  0  0  0  0  0  0  0
    4.0350   -5.8300   28.4510 N   0  0  0  0  0  0  0  0  0  0  0  0
    2.5980   -5.8280   28.2190 C   0  0  0  0  0  0  0  0  0  0  0  0
    1.8100   -6.5780   29.0800 C   0  0  0  0  0  0  0  0  0  0  0  0
    2.5200   -6.8920   30.2020 O   0  0  0  0  0  0  0  0  0  0  0  0
    3.6670   -7.6400   29.9470 C   0  0  0  0  0  0  0  0  0  0  0  0
    4.3150   -7.2320   28.7860 C   0  0  0  0  0  0  0  0  0  0  0  0
    6.0880   -5.0200   23.9740 C   0  0  0  0  0  0  0  0  0  0  0  0
    6.4710   -5.3800   22.5630 C   0  0  0  0  0  0  0  0  0  0  0  0
  1  2  1  0
  2  3  2  0
  2  4  1  0
  4  5  1  0
  5  6  1  0
  6  7  1  0
  7  8  1  0
  8  9  2  0
  8 10  1  0
 10 11  1  0
 11 12  2  0
 12 13  1  0
 13 14  2  0
 14 15  1  0
 11 16  1  0
 15 16  2  0
 10 17  1  0
 17 18  1  1
 17 19  1  0
 19 20  1  0
 20 21  1  0
 21 22  1  0
 22 23  1  0
 23 24  1  0
 20 25  1  0
 24 25  1  0
  7 26  1  0
  4 27  1  0
 26 27  1  0
M  END
