piperidine-amides-10638-covalent
     RDKit          3D

 23 24  0  0  0  0  0  0  0  0999 V2000
    7.0540   -3.3250   19.2900 C   0  0  0  0  0  0  0  0  0  0  0  0
    6.3700   -4.1390   20.3000 C   0  0  0  0  0  0  0  0  0  0  0  0
    5.3130   -4.7130   19.9370 O   0  0  0  0  0  0  0  0  0  0  0  0
    6.9140   -4.2940   21.5730 N   0  0  0  0  0  0  0  0  0  0  0  0
    7.6820   -3.2370   22.1960 C   0  0  0  0  0  0  0  0  0  0  0  0
    6.9190   -2.7550   23.3910 C   0  0  0  0  0  0  0  0  0  0  0  0
    6.5380   -3.9020   24.2790 C   0  0  0  0  0  0  0  0  0  0  0  0
    5.7850   -3.4300   25.4680 C   0  0  0  0  0  0  0  0  0  0  0  0
    4.5320   -3.3530   25.4310 O   0  0  0  0  0  0  0  0  0  0  0  0
    6.4210   -3.0620   26.6630 N   0  0  0  0  0  0  0  0  0  0  0  0
    6.3710   -1.7090   27.1670 C   0  0  0  0  0  0  0  0  0  0  0  0
    6.9930   -1.6040   28.5270 C   0  0  0  0  0  0  0  0  0  0  0  0
    7.0570   -0.4340   29.2050 C   0  0  0  0  0  0  0  0  0  0  0  0
    7.6250   -0.3130   30.4560 C   0  0  0  0  0  0  0  0  0  0  0  0
    6.5210    0.6890   28.5990 C   0  0  0  0  0  0  0  0  0  0  0  0
    5.9300    0.6440   27.3260 C   0  0  0  0  0  0  0  0  0  0  0  0
    5.3230    2.2330   26.7810 S   0  0  0  0  0  0  0  0  0  0  0  0
    6.4460    2.9200   25.6510 N   0  0  0  0  0  0  0  0  0  0  0  0
    5.2080    3.1420   27.9510 O   0  0  0  0  0  0  0  0  0  0  0  0
    4.0500    2.0650   26.0320 O   0  0  0  0  0  0  0  0  0  0  0  0
    5.8690   -0.5610   26.6350 C   0  0  0  0  0  0  0  0  0  0  0  0
    5.6980   -4.9320   23.5190 C   0  0  0  0  0  0  0  0  0  0  0  0
    6.5440   -5.4410   22.3580 C   0  0  0  0  0  0  0  0  0  0  0  0
  1  2  1  0
  2  3  2  0
  2  4  1  0
  4  5  1  0
  5  6  1  0
  6  7  1  0
  7  8  1  0
  8  9  2  0
  8 10  1  0
 10 11  1  0
 11 12  2  0
 12 13  1  0
 13 14  1  0
 13 15  2  0
 15 16  1  0
 16 17  1  0
 17 18  1  0
 17 19  2  0
 17 20  2  0
 11 21  1  0
 16 21  2  0
  7 22  1  0
  4 23  1  0
 22 23  1  0
M  END
