piperidine-amides-31408-covalent
     RDKit          3D

 28 30  0  0  0  0  0  0  0  0999 V2000
    7.0380   -3.3920   19.3120 C   0  0  0  0  0  0  0  0  0  0  0  0
    6.3190   -4.1220   20.3270 C   0  0  0  0  0  0  0  0  0  0  0  0
    5.2990   -4.7730   19.9590 O   0  0  0  0  0  0  0  0  0  0  0  0
    6.7330   -4.1810   21.6700 N   0  0  0  0  0  0  0  0  0  0  0  0
    6.6710   -5.5150   22.3290 C   0  0  0  0  0  0  0  0  0  0  0  0
    5.8240   -5.2380   23.6460 C   0  0  0  0  0  0  0  0  0  0  0  0
    5.9970   -3.7810   23.9950 C   0  0  0  0  0  0  0  0  0  0  0  0
    5.1920   -3.3680   25.3070 C   0  0  0  0  0  0  0  0  0  0  0  0
    4.0050   -3.4970   25.0630 O   0  0  0  0  0  0  0  0  0  0  0  0
    5.9140   -2.9820   26.2960 N   0  0  0  0  0  0  0  0  0  0  0  0
    6.3280   -2.0480   27.2310 C   0  0  0  0  0  0  0  0  0  0  0  0
    7.0000   -1.8580   28.3930 C   0  0  0  0  0  0  0  0  0  0  0  0
    7.1610   -0.6200   29.0410 C   0  0  0  0  0  0  0  0  0  0  0  0
    6.6560    0.7040   28.6150 C   0  0  0  0  0  0  0  0  0  0  0  0
    5.8710    0.6320   27.2830 C   0  0  0  0  0  0  0  0  0  0  0  0
    5.8110   -0.6830   26.7830 C   0  0  0  0  0  0  0  0  0  0  0  0
    6.4940   -4.1420   27.0000 C   0  0  1  0  0  0  0  0  0  0  0  0
    6.8360   -3.7890   28.4490 C   0  0  0  0  0  0  0  0  0  0  0  0
    5.6150   -5.4010   27.0500 C   0  0  0  0  0  0  0  0  0  0  0  0
    4.8800   -4.6050   27.6800 O   0  0  0  0  0  0  0  0  0  0  0  0
    4.9600   -6.6850   27.0120 N   0  0  0  0  0  0  0  0  0  0  0  0
    3.9780   -6.7170   25.9610 C   0  0  0  0  0  0  0  0  0  0  0  0
    2.9140   -7.4980   26.3360 C   0  0  0  0  0  0  0  0  0  0  0  0
    2.3640   -7.3250   27.5610 C   0  0  0  0  0  0  0  0  0  0  0  0
    3.2130   -6.8260   28.5210 C   0  0  0  0  0  0  0  0  0  0  0  0
    4.5460   -7.1850   28.3130 C   0  0  0  0  0  0  0  0  0  0  0  0
    7.3080   -3.1920   23.7310 C   0  0  0  0  0  0  0  0  0  0  0  0
    7.6130   -3.2270   22.2780 C   0  0  0  0  0  0  0  0  0  0  0  0
  1  2  1  0
  2  3  2  0
  2  4  1  0
  4  5  1  0
  5  6  1  0
  6  7  1  0
  7  8  1  0
  8  9  2  0
  8 10  1  0
 10 11  1  0
 11 12  2  0
 12 13  1  0
 13 14  2  0
 14 15  1  0
 11 16  1  0
 15 16  2  0
 10 17  1  0
 17 18  1  1
 17 19  1  0
 19 20  2  0
 19 21  1  0
 21 22  1  0
 22 23  1  0
 23 24  1  0
 24 25  1  0
 21 26  1  0
 25 26  1  0
  7 27  1  0
  4 28  1  0
 27 28  1  0
M  END
