piperidine-amides-30234-covalent
     RDKit          3D

 27 29  0  0  0  0  0  0  0  0999 V2000
    7.0660   -3.3240   19.2770 C   0  0  0  0  0  0  0  0  0  0  0  0
    6.3740   -4.1330   20.2740 C   0  0  0  0  0  0  0  0  0  0  0  0
    5.3380   -4.7190   19.9540 O   0  0  0  0  0  0  0  0  0  0  0  0
    6.9170   -4.3110   21.6000 N   0  0  0  0  0  0  0  0  0  0  0  0
    7.6380   -3.2450   22.2470 C   0  0  0  0  0  0  0  0  0  0  0  0
    6.8160   -2.6770   23.3750 C   0  0  0  0  0  0  0  0  0  0  0  0
    6.3050   -3.7940   24.2800 C   0  0  0  0  0  0  0  0  0  0  0  0
    5.3330   -3.2200   25.2700 C   0  0  0  0  0  0  0  0  0  0  0  0
    4.4490   -2.4280   24.9120 O   0  0  0  0  0  0  0  0  0  0  0  0
    5.3960   -3.5600   26.6490 N   0  0  0  0  0  0  0  0  0  0  0  0
    6.4160   -2.9950   27.4270 C   0  0  0  0  0  0  0  0  0  0  0  0
    6.7360   -4.1260   28.3560 C   0  0  0  0  0  0  0  0  0  0  0  0
    5.7430   -4.5550   29.1390 C   0  0  0  0  0  0  0  0  0  0  0  0
    5.8030   -5.9250   29.4400 C   0  0  0  0  0  0  0  0  0  0  0  0
    5.2240   -6.3340   30.6660 N   0  0  0  0  0  0  0  0  0  0  0  0
    5.6690   -7.4720   31.3530 C   0  0  0  0  0  0  0  0  0  0  0  0
    6.3300   -8.3850   30.8420 O   0  0  0  0  0  0  0  0  0  0  0  0
    5.4030   -7.6840   32.7740 C   0  0  0  0  0  0  0  0  0  0  0  0
    5.5670   -8.8310   33.5810 C   0  0  0  0  0  0  0  0  0  0  0  0
    5.1830   -8.5170   34.8420 N   0  0  0  0  0  0  0  0  0  0  0  0
    4.8100   -7.3010   34.8580 N   0  0  0  0  0  0  0  0  0  0  0  0
    4.3100   -6.4330   35.9090 C   0  0  0  0  0  0  0  0  0  0  0  0
    4.9020   -6.7090   33.6650 C   0  0  0  0  0  0  0  0  0  0  0  0
    4.4820   -4.3810   28.6770 C   0  0  0  0  0  0  0  0  0  0  0  0
    4.2800   -4.1260   27.3160 C   0  0  0  0  0  0  0  0  0  0  0  0
    5.6000   -4.8850   23.5040 C   0  0  0  0  0  0  0  0  0  0  0  0
    6.4340   -5.3890   22.3710 C   0  0  0  0  0  0  0  0  0  0  0  0
  1  2  1  0
  2  3  2  0
  2  4  1  0
  4  5  1  0
  5  6  1  0
  6  7  1  0
  7  8  1  0
  8  9  2  0
  8 10  1  0
 10 11  1  0
 11 12  1  0
 12 13  1  0
 13 14  1  0
 14 15  1  0
 15 16  1  0
 16 17  2  0
 16 18  1  0
 18 19  1  0
 19 20  2  0
 20 21  1  0
 21 22  1  0
 18 23  2  0
 21 23  1  0
 13 24  1  0
 10 25  1  0
 24 25  1  0
  7 26  1  0
  4 27  1  0
 26 27  1  0
M  END
