piperidine-amides-4081-covalent
     RDKit          3D

 28 30  0  0  0  0  0  0  0  0999 V2000
    7.1030   -3.3320   19.3120 C   0  0  0  0  0  0  0  0  0  0  0  0
    6.4260   -4.1670   20.3140 C   0  0  0  0  0  0  0  0  0  0  0  0
    5.3610   -4.7280   19.9550 O   0  0  0  0  0  0  0  0  0  0  0  0
    6.9810   -4.3810   21.6000 N   0  0  0  0  0  0  0  0  0  0  0  0
    7.6770   -3.2910   22.2010 C   0  0  0  0  0  0  0  0  0  0  0  0
    7.2450   -3.0180   23.5570 C   0  0  0  0  0  0  0  0  0  0  0  0
    5.9740   -3.6740   23.9180 C   0  0  0  0  0  0  0  0  0  0  0  0
    5.5200   -3.2290   25.2630 C   0  0  0  0  0  0  0  0  0  0  0  0
    4.3130   -3.2760   25.5630 O   0  0  0  0  0  0  0  0  0  0  0  0
    6.4500   -2.7570   26.1870 N   0  0  0  0  0  0  0  0  0  0  0  0
    6.4030   -1.6160   27.0090 C   0  0  0  0  0  0  0  0  0  0  0  0
    6.2690   -0.2760   26.4330 C   0  0  0  0  0  0  0  0  0  0  0  0
    6.2410    0.9340   27.3830 C   0  0  0  0  0  0  0  0  0  0  0  0
    6.3480    0.6820   28.7240 C   0  0  0  0  0  0  0  0  0  0  0  0
    6.3450    1.6830   29.6640 O   0  0  0  0  0  0  0  0  0  0  0  0
    6.4470    1.1730   30.9460 C   0  0  0  0  0  0  0  0  0  0  0  0
    5.0930    0.6530   31.3850 C   0  0  0  0  0  0  0  0  0  0  0  0
    5.3040    0.1110   32.8110 C   0  0  0  0  0  0  0  0  0  0  0  0
    6.5870    0.1070   33.5790 C   0  0  0  0  0  0  0  0  0  0  0  0
    6.6220   -0.4680   34.9830 C   0  0  0  0  0  0  0  0  0  0  0  0
    7.8010   -0.9200   35.4310 N   0  0  0  0  0  0  0  0  0  0  0  0
    7.8220    0.6620   32.9770 C   0  0  0  0  0  0  0  0  0  0  0  0
    7.7040    1.2050   31.6090 C   0  0  0  0  0  0  0  0  0  0  0  0
    6.4670   -0.6880   29.1640 C   0  0  0  0  0  0  0  0  0  0  0  0
    6.4870   -1.7950   28.3560 C   0  0  0  0  0  0  0  0  0  0  0  0
    6.5830   -3.2000   28.8710 C   0  0  0  0  0  0  0  0  0  0  0  0
    6.0870   -5.1630   23.7640 C   0  0  0  0  0  0  0  0  0  0  0  0
    6.5630   -5.5200   22.3620 C   0  0  0  0  0  0  0  0  0  0  0  0
  1  2  1  0
  2  3  2  0
  2  4  1  0
  4  5  1  0
  5  6  1  0
  6  7  1  0
  7  8  1  0
  8  9  2  0
  8 10  1  0
 10 11  1  0
 11 12  2  0
 12 13  1  0
 13 14  2  0
 14 15  1  0
 15 16  1  0
 16 17  2  0
 17 18  1  0
 18 19  2  0
 19 20  1  0
 20 21  3  0
 19 22  1  0
 16 23  1  0
 22 23  2  0
 14 24  1  0
 11 25  1  0
 24 25  2  0
 25 26  1  0
  7 27  1  0
  4 28  1  0
 27 28  1  0
M  END
