piperidine-amides-4366-covalent
     RDKit          3D

 25 27  0  0  0  0  0  0  0  0999 V2000
    7.1440   -3.2570   19.1650 C   0  0  0  0  0  0  0  0  0  0  0  0
    6.3660   -3.9840   20.1850 C   0  0  0  0  0  0  0  0  0  0  0  0
    5.2610   -4.4570   19.8410 O   0  0  0  0  0  0  0  0  0  0  0  0
    6.8790   -4.1920   21.4820 N   0  0  0  0  0  0  0  0  0  0  0  0
    7.6230   -3.1340   22.0810 C   0  0  0  0  0  0  0  0  0  0  0  0
    7.3580   -2.9120   23.4910 C   0  0  0  0  0  0  0  0  0  0  0  0
    6.6190   -3.9900   24.1720 C   0  0  0  0  0  0  0  0  0  0  0  0
    5.9950   -3.4690   25.4270 C   0  0  0  0  0  0  0  0  0  0  0  0
    4.9390   -3.9860   25.8330 O   0  0  0  0  0  0  0  0  0  0  0  0
    6.5800   -2.4050   26.1440 N   0  0  0  0  0  0  0  0  0  0  0  0
    6.0220   -1.5740   27.1420 C   0  0  0  0  0  0  0  0  0  0  0  0
    4.5850   -1.2730   27.2440 C   0  0  0  0  0  0  0  0  0  0  0  0
    3.4970   -2.2010   26.5990 C   0  0  0  0  0  0  0  0  0  0  0  0
    2.0940   -2.1810   26.5290 C   0  0  0  0  0  0  0  0  0  0  0  0
    1.0040   -3.3150   25.7610 Cl  0  0  0  0  0  0  0  0  0  0  0  0
    1.6620   -0.9240   27.2890 C   0  0  0  0  0  0  0  0  0  0  0  0
    0.1810   -1.0520   27.1170 C   0  0  0  0  0  0  0  0  0  0  0  0
   -0.4230    0.1550   27.8370 C   0  0  0  0  0  0  0  0  0  0  0  0
    0.4440    1.1710   28.5260 C   0  0  0  0  0  0  0  0  0  0  0  0
    1.8580    1.1150   28.5780 N   0  0  0  0  0  0  0  0  0  0  0  0
    2.4740    0.0920   27.9740 C   0  0  0  0  0  0  0  0  0  0  0  0
    3.9750   -0.0840   27.9540 C   0  0  0  0  0  0  0  0  0  0  0  0
    4.7160    0.7790   28.5400 O   0  0  0  0  0  0  0  0  0  0  0  0
    5.6430   -4.6580   23.2630 C   0  0  0  0  0  0  0  0  0  0  0  0
    6.4290   -5.2930   22.3050 C   0  0  0  0  0  0  0  0  0  0  0  0
  1  2  1  0
  2  3  2  0
  2  4  1  0
  4  5  1  0
  5  6  1  0
  6  7  1  0
  7  8  1  0
  8  9  2  0
  8 10  1  0
 10 11  1  0
 11 12  1  0
 12 13  2  0
 13 14  1  0
 14 15  1  0
 14 16  2  0
 16 17  1  0
 17 18  2  0
 18 19  1  0
 19 20  2  0
 16 21  1  0
 20 21  1  0
 12 22  1  0
 21 22  2  0
 22 23  1  0
  7 24  1  0
  4 25  1  0
 24 25  1  0
M  END
