piperidine-amides-422-covalent
     RDKit          3D

 27 29  0  0  0  0  0  0  0  0999 V2000
    7.0690   -3.3890   19.3520 C   0  0  0  0  0  0  0  0  0  0  0  0
    6.3510   -4.1190   20.3810 C   0  0  0  0  0  0  0  0  0  0  0  0
    5.3570   -4.8060   19.9850 O   0  0  0  0  0  0  0  0  0  0  0  0
    6.7260   -4.1420   21.7560 N   0  0  0  0  0  0  0  0  0  0  0  0
    7.7380   -3.1170   22.1870 C   0  0  0  0  0  0  0  0  0  0  0  0
    7.5720   -3.0550   23.7590 C   0  0  0  0  0  0  0  0  0  0  0  0
    6.2420   -3.7020   23.9860 C   0  0  0  0  0  0  0  0  0  0  0  0
    5.3730   -3.1960   25.2250 C   0  0  0  0  0  0  0  0  0  0  0  0
    4.2780   -2.8770   24.8020 O   0  0  0  0  0  0  0  0  0  0  0  0
    5.9520   -3.2160   26.3740 N   0  0  0  0  0  0  0  0  0  0  0  0
    6.3300   -3.0960   27.6870 C   0  0  0  0  0  0  0  0  0  0  0  0
    6.3120   -2.1940   28.7280 C   0  0  0  0  0  0  0  0  0  0  0  0
    5.1030   -1.9470   29.4750 C   0  0  0  0  0  0  0  0  0  0  0  0
    4.7210   -1.0650   30.6180 C   0  0  0  0  0  0  0  0  0  0  0  0
    5.9520   -0.2800   31.0280 C   0  0  0  0  0  0  0  0  0  0  0  0
    5.6990    0.6330   32.1470 N   0  0  0  0  0  0  0  0  0  0  0  0
    4.3740    0.6870   32.6520 C   0  0  0  0  0  0  0  0  0  0  0  0
    4.2920   -0.1180   33.8240 C   0  0  0  0  0  0  0  0  0  0  0  0
    5.0330    1.1910   34.2690 C   0  0  0  0  0  0  0  0  0  0  0  0
    6.5560    0.8840   33.5650 S   0  0  0  0  0  0  0  0  0  0  0  0
    7.4360    2.0690   33.5360 O   0  0  0  0  0  0  0  0  0  0  0  0
    7.1390   -0.4030   34.0480 O   0  0  0  0  0  0  0  0  0  0  0  0
    7.2230   -0.4920   30.3020 C   0  0  0  0  0  0  0  0  0  0  0  0
    8.3450    0.2430   30.6950 F   0  0  0  0  0  0  0  0  0  0  0  0
    7.4530   -1.3390   29.2590 C   0  0  0  0  0  0  0  0  0  0  0  0
    6.2070   -5.1860   23.7110 C   0  0  0  0  0  0  0  0  0  0  0  0
    6.6640   -5.4200   22.4470 C   0  0  0  0  0  0  0  0  0  0  0  0
  1  2  1  0
  2  3  2  0
  2  4  1  0
  4  5  1  0
  5  6  1  0
  6  7  1  0
  7  8  1  0
  8  9  2  0
  8 10  1  0
 10 11  1  0
 11 12  1  0
 12 13  2  0
 13 14  1  0
 14 15  2  0
 15 16  1  0
 16 17  1  0
 17 18  1  0
 18 19  1  0
 20 16  1  0
 19 20  1  0
 20 21  2  0
 20 22  2  0
 15 23  1  0
 23 24  1  0
 12 25  1  0
 23 25  2  0
  7 26  1  0
  4 27  1  0
 26 27  1  0
M  END
