piperidine-amides-29966-covalent
     RDKit          3D

 27 29  0  0  0  0  0  0  0  0999 V2000
    7.1100   -3.3310   19.2720 C   0  0  0  0  0  0  0  0  0  0  0  0
    6.4030   -4.1620   20.2350 C   0  0  0  0  0  0  0  0  0  0  0  0
    5.3450   -4.7130   19.9420 O   0  0  0  0  0  0  0  0  0  0  0  0
    6.9940   -4.3880   21.5140 N   0  0  0  0  0  0  0  0  0  0  0  0
    7.7620   -3.3390   22.1300 C   0  0  0  0  0  0  0  0  0  0  0  0
    6.9880   -2.7910   23.2700 C   0  0  0  0  0  0  0  0  0  0  0  0
    6.7460   -3.9500   24.2080 C   0  0  0  0  0  0  0  0  0  0  0  0
    5.9440   -3.4480   25.3280 C   0  0  0  0  0  0  0  0  0  0  0  0
    4.9840   -2.6620   25.1930 O   0  0  0  0  0  0  0  0  0  0  0  0
    6.3090   -3.8870   26.5950 N   0  0  0  0  0  0  0  0  0  0  0  0
    7.0090   -5.1450   26.7580 C   0  0  0  0  0  0  0  0  0  0  0  0
    6.9460   -5.2880   28.2500 C   0  0  0  0  0  0  0  0  0  0  0  0
    6.0790   -4.3460   28.7570 C   0  0  0  0  0  0  0  0  0  0  0  0
    5.4210   -3.6320   27.7600 C   0  0  2  0  0  0  0  0  0  0  0  0
    4.0840   -3.8810   27.4550 C   0  0  0  0  0  0  0  0  0  0  0  0
    3.7270   -4.0880   26.2720 O   0  0  0  0  0  0  0  0  0  0  0  0
    3.1160   -3.9050   28.5110 N   0  0  0  0  0  0  0  0  0  0  0  0
    1.6990   -3.8840   28.2730 C   0  0  0  0  0  0  0  0  0  0  0  0
    0.8990   -3.9670   29.3650 C   0  0  0  0  0  0  0  0  0  0  0  0
   -0.4810   -3.9540   29.2200 C   0  0  0  0  0  0  0  0  0  0  0  0
   -1.2730   -3.8630   28.0410 C   0  0  0  0  0  0  0  0  0  0  0  0
   -2.6540   -3.8650   28.0830 O   0  0  0  0  0  0  0  0  0  0  0  0
   -3.4020   -3.7170   29.2470 C   0  0  0  0  0  0  0  0  0  0  0  0
   -0.2520   -3.7760   26.8860 C   0  0  0  0  0  0  0  0  0  0  0  0
    1.1190   -3.7900   27.0700 C   0  0  0  0  0  0  0  0  0  0  0  0
    5.9580   -5.0530   23.5360 C   0  0  0  0  0  0  0  0  0  0  0  0
    6.6690   -5.5560   22.2800 C   0  0  0  0  0  0  0  0  0  0  0  0
  1  2  1  0
  2  3  2  0
  2  4  1  0
  4  5  1  0
  5  6  1  0
  6  7  1  0
  7  8  1  0
  8  9  2  0
  8 10  1  0
 10 11  1  0
 11 12  1  0
 12 13  1  0
 10 14  1  0
 13 14  1  0
 14 15  1  6
 15 16  2  0
 15 17  1  0
 17 18  1  0
 18 19  2  0
 19 20  1  0
 20 21  2  0
 21 22  1  0
 22 23  1  0
 21 24  1  0
 18 25  1  0
 24 25  2  0
  7 26  1  0
  4 27  1  0
 26 27  1  0
M  END
