piperidine-amides-9241-covalent
     RDKit          3D

 20 20  0  0  0  0  0  0  0  0999 V2000
    7.1270   -3.2630   19.1730 C   0  0  0  0  0  0  0  0  0  0  0  0
    6.3610   -3.9930   20.1830 C   0  0  0  0  0  0  0  0  0  0  0  0
    5.2850   -4.5250   19.8720 O   0  0  0  0  0  0  0  0  0  0  0  0
    6.8480   -4.1570   21.4820 N   0  0  0  0  0  0  0  0  0  0  0  0
    7.7040   -3.1640   22.0920 C   0  0  0  0  0  0  0  0  0  0  0  0
    6.9250   -2.6330   23.2570 C   0  0  0  0  0  0  0  0  0  0  0  0
    6.5160   -3.7470   24.1620 C   0  0  0  0  0  0  0  0  0  0  0  0
    5.8140   -3.2690   25.3770 C   0  0  0  0  0  0  0  0  0  0  0  0
    4.5570   -3.1100   25.3750 O   0  0  0  0  0  0  0  0  0  0  0  0
    6.5020   -2.9580   26.5710 N   0  0  0  0  0  0  0  0  0  0  0  0
    6.2530   -3.7130   27.8280 C   0  0  0  0  0  0  0  0  0  0  0  0
    5.6030   -5.0010   27.5030 C   0  0  0  0  0  0  0  0  0  0  0  0
    4.2690   -4.7090   27.2500 F   0  0  0  0  0  0  0  0  0  0  0  0
    6.0500   -5.5410   26.2920 F   0  0  0  0  0  0  0  0  0  0  0  0
    5.4930   -6.0340   28.5460 C   0  0  0  0  0  0  0  0  0  0  0  0
    4.6040   -5.7060   29.5520 F   0  0  0  0  0  0  0  0  0  0  0  0
    4.9720   -7.1750   27.9190 F   0  0  0  0  0  0  0  0  0  0  0  0
    6.7610   -6.3520   29.0590 F   0  0  0  0  0  0  0  0  0  0  0  0
    5.6370   -4.7330   23.4210 C   0  0  0  0  0  0  0  0  0  0  0  0
    6.5080   -5.2780   22.3090 C   0  0  0  0  0  0  0  0  0  0  0  0
  1  2  1  0
  2  3  2  0
  2  4  1  0
  4  5  1  0
  5  6  1  0
  6  7  1  0
  7  8  1  0
  8  9  2  0
  8 10  1  0
 10 11  1  0
 11 12  1  0
 12 13  1  0
 12 14  1  0
 12 15  1  0
 15 16  1  0
 15 17  1  0
 15 18  1  0
  7 19  1  0
  4 20  1  0
 19 20  1  0
M  END
