piperidine-amides-8181-covalent
     RDKit          3D

 25 26  0  0  0  0  0  0  0  0999 V2000
    7.0900   -3.2980   19.3350 C   0  0  0  0  0  0  0  0  0  0  0  0
    6.3360   -4.0690   20.3220 C   0  0  0  0  0  0  0  0  0  0  0  0
    5.3080   -4.6480   19.9270 O   0  0  0  0  0  0  0  0  0  0  0  0
    6.7860   -4.1900   21.6730 N   0  0  0  0  0  0  0  0  0  0  0  0
    6.5060   -5.4160   22.3680 C   0  0  0  0  0  0  0  0  0  0  0  0
    6.2960   -5.1520   23.8420 C   0  0  0  0  0  0  0  0  0  0  0  0
    6.0450   -3.6710   24.0170 C   0  0  0  0  0  0  0  0  0  0  0  0
    5.5370   -3.3430   25.4020 C   0  0  0  0  0  0  0  0  0  0  0  0
    4.3180   -3.2430   25.4920 O   0  0  0  0  0  0  0  0  0  0  0  0
    6.4170   -3.1700   26.4780 N   0  0  0  0  0  0  0  0  0  0  0  0
    6.3050   -3.8940   27.7200 C   0  0  2  0  0  0  0  0  0  0  0  0
    5.6690   -5.1460   27.6670 C   0  0  0  0  0  0  0  0  0  0  0  0
    5.5790   -3.0480   28.6730 C   0  0  0  0  0  0  0  0  0  0  0  0
    4.2690   -3.1570   29.1170 C   0  0  0  0  0  0  0  0  0  0  0  0
    3.8370   -2.1220   30.1150 C   0  0  0  0  0  0  0  0  0  0  0  0
    4.7880   -1.0100   30.6140 C   0  0  0  0  0  0  0  0  0  0  0  0
    4.2710    0.1820   31.7790 S   0  0  0  0  0  0  0  0  0  0  0  0
    2.7660    0.2540   31.8670 O   0  0  0  0  0  0  0  0  0  0  0  0
    4.8140   -0.0840   33.1450 O   0  0  0  0  0  0  0  0  0  0  0  0
    4.8220    1.7900   31.2370 C   0  0  0  0  0  0  0  0  0  0  0  0
    5.0690    2.5820   32.4900 C   0  0  0  0  0  0  0  0  0  0  0  0
    6.0730   -1.0100   30.0890 C   0  0  0  0  0  0  0  0  0  0  0  0
    6.4820   -1.9460   29.1800 C   0  0  0  0  0  0  0  0  0  0  0  0
    7.3360   -2.9880   23.6990 C   0  0  0  0  0  0  0  0  0  0  0  0
    7.6040   -3.1200   22.2200 C   0  0  0  0  0  0  0  0  0  0  0  0
  1  2  1  0
  2  3  2  0
  2  4  1  0
  4  5  1  0
  5  6  1  0
  6  7  1  0
  7  8  1  0
  8  9  2  0
  8 10  1  0
 10 11  1  0
 11 12  1  6
 11 13  1  0
 13 14  2  0
 14 15  1  0
 15 16  2  0
 16 17  1  0
 17 18  2  0
 17 19  2  0
 17 20  1  0
 20 21  1  0
 16 22  1  0
 13 23  1  0
 22 23  2  0
  7 24  1  0
  4 25  1  0
 24 25  1  0
M  END
