piperidine-amides-35668-covalent
     RDKit          3D

 42 46  0  0  0  0  0  0  0  0999 V2000
    7.0740   -3.3230   19.2940 C   0  0  0  0  0  0  0  0  0  0  0  0
    6.4200   -4.1800   20.3110 C   0  0  0  0  0  0  0  0  0  0  0  0
    5.4070   -4.7940   19.9710 O   0  0  0  0  0  0  0  0  0  0  0  0
    7.0040   -4.2930   21.5780 N   0  0  0  0  0  0  0  0  0  0  0  0
    7.7160   -3.1930   22.1600 C   0  0  0  0  0  0  0  0  0  0  0  0
    6.8350   -2.6050   23.2070 C   0  0  0  0  0  0  0  0  0  0  0  0
    6.5800   -3.6430   24.2900 C   0  0  0  0  0  0  0  0  0  0  0  0
    5.7660   -2.9850   25.3280 C   0  0  0  0  0  0  0  0  0  0  0  0
    4.6940   -2.4790   24.9750 O   0  0  0  0  0  0  0  0  0  0  0  0
    6.1210   -2.9260   26.6950 N   0  0  0  0  0  0  0  0  0  0  0  0
    6.2730   -1.6120   27.2930 C   0  0  0  0  0  0  0  0  0  0  0  0
    5.8550   -0.4510   26.4170 C   0  0  0  0  0  0  0  0  0  0  0  0
    5.9090    0.8290   26.8500 C   0  0  0  0  0  0  0  0  0  0  0  0
    6.3540    0.9420   28.0970 C   0  0  0  0  0  0  0  0  0  0  0  0
    6.5860    1.9470   28.9860 C   0  0  0  0  0  0  0  0  0  0  0  0
    6.8080    0.0260   29.1170 C   0  0  0  0  0  0  0  0  0  0  0  0
    7.3620    0.4780   30.7750 S   0  0  0  0  0  0  0  0  0  0  0  0
    7.0000    2.0860   31.3260 N   0  0  0  0  0  0  0  0  0  0  0  0
    6.6570   -0.4050   31.7480 O   0  0  0  0  0  0  0  0  0  0  0  0
    8.8430    0.2720   30.8940 O   0  0  0  0  0  0  0  0  0  0  0  0
    6.7970   -1.4400   28.7250 C   0  0  0  0  0  0  0  0  0  0  0  0
    5.1800   -3.6050   27.5420 C   0  0  0  0  0  0  0  0  0  0  0  0
    3.8400   -3.3250   27.5290 N   0  0  0  0  0  0  0  0  0  0  0  0
    3.0390   -4.0620   28.4240 C   0  0  0  0  0  0  0  0  0  0  0  0
    3.4980   -5.0770   29.3420 C   0  0  0  0  0  0  0  0  0  0  0  0
    4.9820   -5.3290   29.2940 C   0  0  0  0  0  0  0  0  0  0  0  0
    5.6320   -6.2000   30.0150 N   0  0  0  0  0  0  0  0  0  0  0  0
    6.4000   -6.9440   29.3020 C   0  0  0  0  0  0  0  0  0  0  0  0
    5.1830   -6.7070   31.2670 C   0  0  0  0  0  0  0  0  0  0  0  0
    4.1480   -6.0620   31.9170 C   0  0  0  0  0  0  0  0  0  0  0  0
    3.5980   -6.5290   33.2450 C   0  0  0  0  0  0  0  0  0  0  0  0
    4.2580   -7.7730   33.8370 C   0  0  0  0  0  0  0  0  0  0  0  0
    4.0170   -8.5450   35.1010 C   0  0  0  0  0  0  0  0  0  0  0  0
    3.0590   -8.1970   36.0020 C   0  0  0  0  0  0  0  0  0  0  0  0
    4.8760   -9.5730   35.1560 N   0  0  0  0  0  0  0  0  0  0  0  0
    4.9720  -10.5010   36.1360 C   0  0  0  0  0  0  0  0  0  0  0  0
    5.6610   -9.5480   34.0540 N   0  0  0  0  0  0  0  0  0  0  0  0
    5.2700   -8.4120   33.2180 C   0  0  0  0  0  0  0  0  0  0  0  0
    5.7230   -7.8300   31.8890 C   0  0  0  0  0  0  0  0  0  0  0  0
    5.6700   -4.5650   28.3990 N   0  0  0  0  0  0  0  0  0  0  0  0
    5.9150   -4.8670   23.6560 C   0  0  0  0  0  0  0  0  0  0  0  0
    6.6790   -5.3920   22.4410 C   0  0  0  0  0  0  0  0  0  0  0  0
  1  2  1  0
  2  3  2  0
  2  4  1  0
  4  5  1  0
  5  6  1  0
  6  7  1  0
  7  8  1  0
  8  9  2  0
  8 10  1  0
 10 11  1  0
 11 12  2  0
 12 13  1  0
 13 14  2  0
 14 15  1  0
 14 16  1  0
 16 17  1  0
 17 18  1  0
 17 19  2  0
 17 20  2  0
 11 21  1  0
 16 21  2  0
 10 22  1  0
 22 23  2  0
 23 24  1  0
 24 25  2  0
 25 26  1  0
 26 27  1  0
 27 28  1  0
 27 29  1  0
 29 30  1  0
 30 31  2  0
 31 32  1  0
 32 33  2  0
 33 34  1  0
 33 35  1  0
 35 36  1  0
 35 37  1  0
 32 38  1  0
 37 38  2  0
 29 39  2  0
 38 39  1  0
 22 40  1  0
 26 40  2  0
  7 41  1  0
  4 42  1  0
 41 42  1  0
M  END
