piperidine-amides-10384-covalent
     RDKit          3D

 24 26  0  0  0  0  0  0  0  0999 V2000
    7.0330   -3.3510   19.3790 C   0  0  0  0  0  0  0  0  0  0  0  0
    6.3840   -4.1900   20.3910 C   0  0  0  0  0  0  0  0  0  0  0  0
    5.4020   -4.8750   19.9930 O   0  0  0  0  0  0  0  0  0  0  0  0
    6.8700   -4.2410   21.7100 N   0  0  0  0  0  0  0  0  0  0  0  0
    7.7730   -3.2190   22.2110 C   0  0  0  0  0  0  0  0  0  0  0  0
    7.3910   -2.9290   23.6280 C   0  0  0  0  0  0  0  0  0  0  0  0
    6.0310   -3.4890   23.8900 C   0  0  0  0  0  0  0  0  0  0  0  0
    5.5390   -3.1490   25.2520 C   0  0  0  0  0  0  0  0  0  0  0  0
    4.3140   -2.9460   25.3780 O   0  0  0  0  0  0  0  0  0  0  0  0
    6.3510   -3.0560   26.4020 N   0  0  0  0  0  0  0  0  0  0  0  0
    6.6820   -1.8000   27.0650 C   0  0  2  0  0  0  0  0  0  0  0  0
    7.0500   -2.1570   28.5760 C   0  0  0  0  0  0  0  0  0  0  0  0
    6.3660   -1.7840   29.5940 O   0  0  0  0  0  0  0  0  0  0  0  0
    6.2450   -0.5710   29.1600 C   0  0  0  0  0  0  0  0  0  0  0  0
    5.9880    0.1300   27.9060 C   0  0  0  0  0  0  0  0  0  0  0  0
    6.0570    1.3750   28.2490 C   0  0  0  0  0  0  0  0  0  0  0  0
    6.2750    0.6570   29.2780 C   0  0  0  0  0  0  0  0  0  0  0  0
    5.9830    0.0310   27.9030 C   0  0  0  0  0  0  0  0  0  0  0  0
    6.0540   -1.4160   28.2930 C   0  0  0  0  0  0  0  0  0  0  0  0
    6.2390   -2.3920   29.2380 O   0  0  0  0  0  0  0  0  0  0  0  0
    5.7510   -3.7570   29.0710 C   0  0  0  0  0  0  0  0  0  0  0  0
    5.7680   -0.5830   26.7440 C   0  0  0  0  0  0  0  0  0  0  0  0
    6.0090   -4.9890   23.7060 C   0  0  0  0  0  0  0  0  0  0  0  0
    6.6800   -5.4190   22.5660 C   0  0  0  0  0  0  0  0  0  0  0  0
  1  2  1  0
  2  3  2  0
  2  4  1  0
  4  5  1  0
  5  6  1  0
  6  7  1  0
  7  8  1  0
  8  9  2  0
  8 10  1  0
 11 10  1  1
 11 12  1  0
 12 13  1  0
 13 14  1  0
 14 15  2  0
 15 16  1  0
 16 17  2  0
 17 18  1  0
 14 19  1  0
 18 19  2  0
 19 20  1  0
 20 21  1  0
 11 22  1  0
 15 22  1  0
  7 23  1  0
  4 24  1  0
 23 24  1  0
M  END
