piperidine-amides-3060-covalent
     RDKit          3D

 23 24  0  0  0  0  0  0  0  0999 V2000
    7.1100   -3.3170   19.2350 C   0  0  0  0  0  0  0  0  0  0  0  0
    6.3820   -4.0830   20.2380 C   0  0  0  0  0  0  0  0  0  0  0  0
    5.3360   -4.6580   19.9360 O   0  0  0  0  0  0  0  0  0  0  0  0
    6.9280   -4.2070   21.5620 N   0  0  0  0  0  0  0  0  0  0  0  0
    7.6970   -3.1290   22.1090 C   0  0  0  0  0  0  0  0  0  0  0  0
    6.9500   -2.5650   23.2680 C   0  0  0  0  0  0  0  0  0  0  0  0
    6.5630   -3.7410   24.1500 C   0  0  0  0  0  0  0  0  0  0  0  0
    5.7830   -3.2240   25.2970 C   0  0  0  0  0  0  0  0  0  0  0  0
    4.5510   -3.0500   25.2390 O   0  0  0  0  0  0  0  0  0  0  0  0
    6.4730   -2.9240   26.4940 N   0  0  0  0  0  0  0  0  0  0  0  0
    6.3800   -3.8610   27.5810 C   0  0  2  0  0  0  0  0  0  0  0  0
    6.7910   -5.2130   27.0510 C   0  0  0  0  0  0  0  0  0  0  0  0
    6.4140   -6.3500   27.6290 N   0  0  0  0  0  0  0  0  0  0  0  0
    6.9330   -6.3680   28.8610 C   0  0  0  0  0  0  0  0  0  0  0  0
    5.0210   -6.6620   27.5460 C   0  0  0  0  0  0  0  0  0  0  0  0
    4.9900   -3.7600   28.1130 C   0  0  0  0  0  0  0  0  0  0  0  0
    3.9780   -2.8320   27.6940 C   0  0  0  0  0  0  0  0  0  0  0  0
    2.7020   -2.7170   28.1590 C   0  0  0  0  0  0  0  0  0  0  0  0
    2.2920   -3.5860   29.1620 C   0  0  0  0  0  0  0  0  0  0  0  0
    3.1920   -4.5480   29.6650 C   0  0  0  0  0  0  0  0  0  0  0  0
    4.5630   -4.6130   29.1100 C   0  0  0  0  0  0  0  0  0  0  0  0
    5.7700   -4.8090   23.4020 C   0  0  0  0  0  0  0  0  0  0  0  0
    6.6030   -5.3230   22.4050 C   0  0  0  0  0  0  0  0  0  0  0  0
  1  2  1  0
  2  3  2  0
  2  4  1  0
  4  5  1  0
  5  6  1  0
  6  7  1  0
  7  8  1  0
  8  9  2  0
  8 10  1  0
 10 11  1  0
 11 12  1  6
 12 13  1  0
 13 14  1  0
 13 15  1  0
 11 16  1  0
 16 17  2  0
 17 18  1  0
 18 19  2  0
 19 20  1  0
 16 21  1  0
 20 21  2  0
  7 22  1  0
  4 23  1  0
 22 23  1  0
M  END
