piperidine-amides-1227-covalent
     RDKit          3D

 23 24  0  0  0  0  0  0  0  0999 V2000
    7.0350   -3.3260   19.3260 C   0  0  0  0  0  0  0  0  0  0  0  0
    6.3360   -4.1740   20.3340 C   0  0  0  0  0  0  0  0  0  0  0  0
    5.3670   -4.8630   19.9790 O   0  0  0  0  0  0  0  0  0  0  0  0
    6.8220   -4.1960   21.6570 N   0  0  0  0  0  0  0  0  0  0  0  0
    7.6990   -3.1580   22.1690 C   0  0  0  0  0  0  0  0  0  0  0  0
    7.4960   -3.0390   23.6800 C   0  0  0  0  0  0  0  0  0  0  0  0
    6.1470   -3.5890   23.9740 C   0  0  0  0  0  0  0  0  0  0  0  0
    5.6410   -3.2410   25.3190 C   0  0  0  0  0  0  0  0  0  0  0  0
    4.4230   -3.3470   25.4950 O   0  0  0  0  0  0  0  0  0  0  0  0
    6.5280   -2.8120   26.3090 N   0  0  0  0  0  0  0  0  0  0  0  0
    6.4610   -1.6040   27.0520 C   0  0  0  0  0  0  0  0  0  0  0  0
    5.9420   -0.3980   26.6370 C   0  0  0  0  0  0  0  0  0  0  0  0
    5.9200    0.7510   27.4620 C   0  0  0  0  0  0  0  0  0  0  0  0
    6.4250    0.7480   28.7580 C   0  0  0  0  0  0  0  0  0  0  0  0
    6.3740    1.8840   29.4940 N   0  0  0  0  0  0  0  0  0  0  0  0
    5.1830    2.4960   29.6300 C   0  0  0  0  0  0  0  0  0  0  0  0
    4.7350    3.3670   28.7230 O   0  0  0  0  0  0  0  0  0  0  0  0
    4.4030    2.2150   30.7390 O   0  0  0  0  0  0  0  0  0  0  0  0
    3.3610    3.0850   31.1410 C   0  0  0  0  0  0  0  0  0  0  0  0
    6.9380   -0.4660   29.1450 C   0  0  0  0  0  0  0  0  0  0  0  0
    6.9490   -1.5630   28.3400 C   0  0  0  0  0  0  0  0  0  0  0  0
    6.0510   -5.0570   23.7550 C   0  0  0  0  0  0  0  0  0  0  0  0
    6.6670   -5.4210   22.4180 C   0  0  0  0  0  0  0  0  0  0  0  0
  1  2  1  0
  2  3  2  0
  2  4  1  0
  4  5  1  0
  5  6  1  0
  6  7  1  0
  7  8  1  0
  8  9  2  0
  8 10  1  0
 10 11  1  0
 11 12  2  0
 12 13  1  0
 13 14  2  0
 14 15  1  0
 15 16  1  0
 16 17  2  0
 16 18  1  0
 18 19  1  0
 14 20  1  0
 11 21  1  0
 20 21  2  0
  7 22  1  0
  4 23  1  0
 22 23  1  0
M  END
