piperidine-amides-13783-covalent
     RDKit          3D

 27 29  0  0  0  0  0  0  0  0999 V2000
    7.0970   -3.3500   19.3360 C   0  0  0  0  0  0  0  0  0  0  0  0
    6.3580   -4.1660   20.3330 C   0  0  0  0  0  0  0  0  0  0  0  0
    5.3520   -4.8010   19.9720 O   0  0  0  0  0  0  0  0  0  0  0  0
    6.8610   -4.2290   21.6460 N   0  0  0  0  0  0  0  0  0  0  0  0
    7.7130   -3.1770   22.1690 C   0  0  0  0  0  0  0  0  0  0  0  0
    7.5270   -3.1020   23.6840 C   0  0  0  0  0  0  0  0  0  0  0  0
    6.1280   -3.5230   23.9680 C   0  0  0  0  0  0  0  0  0  0  0  0
    5.6310   -3.1290   25.3070 C   0  0  0  0  0  0  0  0  0  0  0  0
    4.4050   -3.1260   25.4590 O   0  0  0  0  0  0  0  0  0  0  0  0
    6.5410   -2.7950   26.3100 N   0  0  0  0  0  0  0  0  0  0  0  0
    6.6130   -1.6250   27.1240 C   0  0  0  0  0  0  0  0  0  0  0  0
    6.5350   -1.6990   28.4870 C   0  0  0  0  0  0  0  0  0  0  0  0
    6.6600   -0.5440   29.2580 C   0  0  0  0  0  0  0  0  0  0  0  0
    5.6980    0.4320   28.7650 N   0  0  0  0  0  0  0  0  0  0  0  0
    5.1970    1.5180   29.4110 C   0  0  0  0  0  0  0  0  0  0  0  0
    5.3470    2.8990   28.8610 C   0  0  0  0  0  0  0  0  0  0  0  0
    4.2000    3.9230   29.0160 C   0  0  0  0  0  0  0  0  0  0  0  0
    4.4580    5.3090   28.4220 C   0  0  0  0  0  0  0  0  0  0  0  0
    5.6250    5.6450   27.7870 C   0  0  0  0  0  0  0  0  0  0  0  0
    6.7250    4.6830   27.6310 C   0  0  0  0  0  0  0  0  0  0  0  0
    7.7250    5.1300   27.0320 O   0  0  0  0  0  0  0  0  0  0  0  0
    8.6830    4.1820   26.7940 C   0  0  0  0  0  0  0  0  0  0  0  0
    6.5030    3.3070   28.2070 C   0  0  0  0  0  0  0  0  0  0  0  0
    5.7850    0.6670   27.3550 C   0  0  0  0  0  0  0  0  0  0  0  0
    5.5840   -0.6510   26.6180 C   0  0  0  0  0  0  0  0  0  0  0  0
    5.9980   -5.0180   23.7890 C   0  0  0  0  0  0  0  0  0  0  0  0
    6.5630   -5.4030   22.4690 C   0  0  0  0  0  0  0  0  0  0  0  0
  1  2  1  0
  2  3  2  0
  2  4  1  0
  4  5  1  0
  5  6  1  0
  6  7  1  0
  7  8  1  0
  8  9  2  0
  8 10  1  0
 10 11  1  0
 11 12  1  0
 12 13  1  0
 13 14  1  0
 14 15  1  0
 15 16  1  0
 16 17  2  0
 17 18  1  0
 18 19  2  0
 19 20  1  0
 20 21  1  0
 21 22  1  0
 16 23  1  0
 20 23  2  0
 14 24  1  0
 11 25  1  0
 24 25  1  0
  7 26  1  0
  4 27  1  0
 26 27  1  0
M  END
