piperidine-amides-35629-covalent
     RDKit          3D

 37 40  0  0  0  0  0  0  0  0999 V2000
    7.0710   -3.3180   19.3000 C   0  0  0  0  0  0  0  0  0  0  0  0
    6.3380   -4.2050   20.2450 C   0  0  0  0  0  0  0  0  0  0  0  0
    5.2490   -4.6300   19.8930 O   0  0  0  0  0  0  0  0  0  0  0  0
    6.9160   -4.5680   21.4550 N   0  0  0  0  0  0  0  0  0  0  0  0
    6.4480   -5.7460   22.1500 C   0  0  0  0  0  0  0  0  0  0  0  0
    5.4850   -5.3410   23.2410 C   0  0  0  0  0  0  0  0  0  0  0  0
    6.0400   -4.0840   23.8850 C   0  0  0  0  0  0  0  0  0  0  0  0
    5.2230   -3.6550   25.0410 C   0  0  0  0  0  0  0  0  0  0  0  0
    3.9950   -3.7660   25.0660 O   0  0  0  0  0  0  0  0  0  0  0  0
    5.9120   -3.1030   26.1090 N   0  0  0  0  0  0  0  0  0  0  0  0
    5.5770   -3.5150   27.4850 C   0  0  0  0  0  0  0  0  0  0  0  0
    5.4340   -4.3110   28.8020 C   0  0  0  0  0  0  0  0  0  0  0  0
    5.7740   -5.5140   29.2810 C   0  0  0  0  0  0  0  0  0  0  0  0
    6.3750   -6.2480   28.4740 C   0  0  0  0  0  0  0  0  0  0  0  0
    6.5820   -5.7420   27.2920 C   0  0  0  0  0  0  0  0  0  0  0  0
    6.2710   -4.4110   26.6020 C   0  0  0  0  0  0  0  0  0  0  0  0
    6.9050   -5.3940   25.9960 N   0  0  0  0  0  0  0  0  0  0  0  0
    7.7100   -4.4450   25.5680 C   0  0  0  0  0  0  0  0  0  0  0  0
    8.9110   -4.5900   24.9440 O   0  0  0  0  0  0  0  0  0  0  0  0
    7.3240   -2.9870   25.8030 C   0  0  1  0  0  0  0  0  0  0  0  0
    7.8000   -2.2730   24.5910 C   0  0  0  0  0  0  0  0  0  0  0  0
    7.7440   -0.7910   24.8080 C   0  0  0  0  0  0  0  0  0  0  0  0
    7.2770   -0.2190   25.8210 O   0  0  0  0  0  0  0  0  0  0  0  0
    8.3350   -0.1520   23.6130 N   0  0  0  0  0  0  0  0  0  0  0  0
    9.7290   -0.0700   23.5030 C   0  0  0  0  0  0  0  0  0  0  0  0
   10.5710   -1.1570   24.0860 C   0  0  0  0  0  0  0  0  0  0  0  0
   12.0700   -1.1950   24.0420 C   0  0  0  0  0  0  0  0  0  0  0  0
   12.8310   -2.2010   24.5690 C   0  0  0  0  0  0  0  0  0  0  0  0
   13.5900   -1.8590   25.6120 F   0  0  0  0  0  0  0  0  0  0  0  0
   12.1000   -3.2800   25.0730 F   0  0  0  0  0  0  0  0  0  0  0  0
   13.6490   -2.8300   23.7120 F   0  0  0  0  0  0  0  0  0  0  0  0
   12.8170   -0.0670   23.3770 C   0  0  0  0  0  0  0  0  0  0  0  0
   11.9370    1.0230   22.7970 C   0  0  0  0  0  0  0  0  0  0  0  0
   10.4160    0.9580   22.8860 C   0  0  0  0  0  0  0  0  0  0  0  0
    9.4700    2.2730   22.1630 Cl  0  0  0  0  0  0  0  0  0  0  0  0
    6.3220   -2.9420   22.9510 C   0  0  0  0  0  0  0  0  0  0  0  0
    7.5160   -3.4820   22.1760 C   0  0  0  0  0  0  0  0  0  0  0  0
  1  2  1  0
  2  3  2  0
  2  4  1  0
  4  5  1  0
  5  6  1  0
  6  7  1  0
  7  8  1  0
  8  9  2  0
  8 10  1  0
 10 11  1  0
 11 12  2  0
 12 13  1  0
 13 14  2  0
 14 15  1  0
 11 16  1  0
 15 16  2  0
 16 17  1  0
 17 18  1  0
 18 19  2  0
 10 20  1  0
 18 20  1  0
 20 21  1  6
 21 22  1  0
 22 23  2  0
 22 24  1  0
 24 25  1  0
 25 26  2  0
 26 27  1  0
 27 28  1  0
 28 29  1  0
 28 30  1  0
 28 31  1  0
 27 32  2  0
 32 33  1  0
 25 34  1  0
 33 34  2  0
 34 35  1  0
  7 36  1  0
  4 37  1  0
 36 37  1  0
M  END
