piperidine-amides-31262-covalent
     RDKit          3D

 22 24  0  0  0  0  0  0  0  0999 V2000
    7.0860   -3.3410   19.2960 C   0  0  0  0  0  0  0  0  0  0  0  0
    6.4000   -4.1650   20.2930 C   0  0  0  0  0  0  0  0  0  0  0  0
    5.3730   -4.7820   19.9660 O   0  0  0  0  0  0  0  0  0  0  0  0
    6.9130   -4.3120   21.5940 N   0  0  0  0  0  0  0  0  0  0  0  0
    6.7830   -5.5520   22.3430 C   0  0  0  0  0  0  0  0  0  0  0  0
    6.1160   -5.1680   23.6320 C   0  0  0  0  0  0  0  0  0  0  0  0
    6.0920   -3.6840   23.7710 C   0  0  0  0  0  0  0  0  0  0  0  0
    5.5060   -3.2290   25.0360 C   0  0  0  0  0  0  0  0  0  0  0  0
    4.6580   -2.2960   25.0520 O   0  0  0  0  0  0  0  0  0  0  0  0
    5.8200   -3.7940   26.2630 N   0  0  0  0  0  0  0  0  0  0  0  0
    4.8980   -4.8380   26.7850 C   0  0  0  0  0  0  0  0  0  0  0  0
    5.0050   -5.0030   28.2690 C   0  0  0  0  0  0  0  0  0  0  0  0
    6.4990   -4.9180   29.0940 S   0  0  0  0  0  0  0  0  0  0  0  0
    6.6830   -3.2340   28.6520 C   0  0  0  0  0  0  0  0  0  0  0  0
    7.1010   -2.0850   29.3480 N   0  0  0  0  0  0  0  0  0  0  0  0
    6.6300   -2.4450   28.0680 C   0  0  0  0  0  0  0  0  0  0  0  0
    6.6700   -3.9410   28.8950 C   0  0  0  0  0  0  0  0  0  0  0  0
    6.4230   -5.8810   29.0500 Br  0  0  0  0  0  0  0  0  0  0  0  0
    6.2220   -4.1170   27.6130 C   0  0  0  0  0  0  0  0  0  0  0  0
    6.2990   -2.9500   27.2560 C   0  0  0  0  0  0  0  0  0  0  0  0
    7.4610   -3.1080   23.5920 C   0  0  0  0  0  0  0  0  0  0  0  0
    7.7740   -3.2590   22.1280 C   0  0  0  0  0  0  0  0  0  0  0  0
  1  2  1  0
  2  3  2  0
  2  4  1  0
  4  5  1  0
  5  6  1  0
  6  7  1  0
  7  8  1  0
  8  9  2  0
  8 10  1  0
 10 11  1  0
 11 12  1  0
 12 13  1  0
 13 14  1  0
 14 15  2  0
 15 16  1  0
 16 17  2  0
 17 18  1  0
 17 19  1  0
 10 20  1  0
 14 20  1  0
 19 20  2  0
  7 21  1  0
  4 22  1  0
 21 22  1  0
M  END
