piperidine-amides-3433-covalent
     RDKit          3D

 21 23  0  0  0  0  0  0  0  0999 V2000
    7.0560   -3.4020   19.3720 C   0  0  0  0  0  0  0  0  0  0  0  0
    6.3850   -4.3140   20.3000 C   0  0  0  0  0  0  0  0  0  0  0  0
    5.3470   -4.8710   19.9730 O   0  0  0  0  0  0  0  0  0  0  0  0
    6.9750   -4.6100   21.5740 N   0  0  0  0  0  0  0  0  0  0  0  0
    6.3700   -5.6260   22.4020 C   0  0  0  0  0  0  0  0  0  0  0  0
    5.7500   -5.0160   23.6510 C   0  0  0  0  0  0  0  0  0  0  0  0
    6.6240   -3.8690   24.1500 C   0  0  0  0  0  0  0  0  0  0  0  0
    6.0340   -3.1150   25.2970 C   0  0  0  0  0  0  0  0  0  0  0  0
    4.9260   -3.4120   25.8010 O   0  0  0  0  0  0  0  0  0  0  0  0
    6.7860   -1.9890   25.8100 N   0  0  0  0  0  0  0  0  0  0  0  0
    6.3270   -1.4100   27.0570 C   0  0  0  0  0  0  0  0  0  0  0  0
    5.8410   -0.1090   26.9140 C   0  0  0  0  0  0  0  0  0  0  0  0
    6.0350    0.0800   25.7050 N   0  0  0  0  0  0  0  0  0  0  0  0
    6.6310   -1.1850   25.4180 C   0  0  0  0  0  0  0  0  0  0  0  0
    7.0500   -1.3680   24.0840 C   0  0  0  0  0  0  0  0  0  0  0  0
    7.5610   -0.4350   23.4670 C   0  0  0  0  0  0  0  0  0  0  0  0
    8.4780   -1.5730   23.8540 C   0  0  0  0  0  0  0  0  0  0  0  0
    6.7670   -2.1810   26.5450 N   0  0  0  0  0  0  0  0  0  0  0  0
    6.4620   -2.2160   27.9540 C   0  0  0  0  0  0  0  0  0  0  0  0
    6.7650   -2.9130   22.9980 C   0  0  0  0  0  0  0  0  0  0  0  0
    7.6670   -3.5040   22.1660 C   0  0  0  0  0  0  0  0  0  0  0  0
  1  2  1  0
  2  3  2  0
  2  4  1  0
  4  5  1  0
  5  6  1  0
  6  7  1  0
  7  8  1  0
  8  9  2  0
  8 10  1  0
 10 11  1  0
 11 12  2  0
 12 13  1  0
 13 14  2  0
 14 15  1  0
 15 16  1  0
 15 17  1  0
 16 17  1  0
 14 18  1  0
 11 19  1  0
 18 19  2  0
  7 20  1  0
  4 21  1  0
 20 21  1  0
M  END
