piperidine-amides-11428-covalent
     RDKit          3D

 21 23  0  0  0  0  0  0  0  0999 V2000
    7.0590   -3.3350   19.3310 C   0  0  0  0  0  0  0  0  0  0  0  0
    6.3750   -4.1640   20.3300 C   0  0  0  0  0  0  0  0  0  0  0  0
    5.3780   -4.8170   19.9760 O   0  0  0  0  0  0  0  0  0  0  0  0
    6.8420   -4.2770   21.6560 N   0  0  0  0  0  0  0  0  0  0  0  0
    6.6730   -5.4980   22.4210 C   0  0  0  0  0  0  0  0  0  0  0  0
    5.9660   -5.0970   23.6920 C   0  0  0  0  0  0  0  0  0  0  0  0
    5.9700   -3.6080   23.8620 C   0  0  0  0  0  0  0  0  0  0  0  0
    5.3760   -3.1130   25.1340 C   0  0  0  0  0  0  0  0  0  0  0  0
    4.1950   -2.6630   25.1310 O   0  0  0  0  0  0  0  0  0  0  0  0
    6.0320   -3.1190   26.3810 N   0  0  0  0  0  0  0  0  0  0  0  0
    6.5230   -1.8780   27.0290 C   0  0  1  0  0  0  0  0  0  0  0  0
    6.1070   -0.5900   26.3890 C   0  0  0  0  0  0  0  0  0  0  0  0
    6.0920    0.6500   27.2310 C   0  0  0  0  0  0  0  0  0  0  0  0
    5.7620    0.4110   28.6790 C   0  0  0  0  0  0  0  0  0  0  0  0
    6.6550   -0.6930   29.1740 C   0  0  0  0  0  0  0  0  0  0  0  0
    6.2490   -1.9260   28.4690 C   0  0  2  0  0  0  0  0  0  0  0  0
    6.8320   -3.0170   28.9900 O   0  0  0  0  0  0  0  0  0  0  0  0
    7.9860   -3.1810   28.2620 C   0  0  0  0  0  0  0  0  0  0  0  0
    7.9640   -2.1370   27.3160 C   0  0  0  0  0  0  0  0  0  0  0  0
    7.3680   -3.0220   23.6660 C   0  0  0  0  0  0  0  0  0  0  0  0
    7.6810   -3.2050   22.1780 C   0  0  0  0  0  0  0  0  0  0  0  0
  1  2  1  0
  2  3  2  0
  2  4  1  0
  4  5  1  0
  5  6  1  0
  6  7  1  0
  7  8  1  0
  8  9  2  0
  8 10  1  0
 11 10  1  6
 11 12  1  0
 12 13  1  0
 13 14  1  0
 14 15  1  0
 11 16  1  0
 16 15  1  1
 16 17  1  0
 17 18  1  0
 11 19  1  0
 18 19  1  0
  7 20  1  0
  4 21  1  0
 20 21  1  0
M  END
