piperidine-amides-27737-covalent
     RDKit          3D

 26 28  0  0  0  0  0  0  0  0999 V2000
    8.0180   -3.3860   19.0060 C   0  0  0  0  0  0  0  0  0  0  0  0
    6.8600   -2.4810   18.8760 C   0  0  0  0  0  0  0  0  0  0  0  0
    5.7620   -2.9830   18.5020 O   0  0  0  0  0  0  0  0  0  0  0  0
    7.0170   -1.0990   19.1660 N   0  0  0  0  0  0  0  0  0  0  0  0
    7.6570   -0.7740   20.4000 C   0  0  0  0  0  0  0  0  0  0  0  0
    6.7690   -0.9440   21.5370 C   0  0  0  0  0  0  0  0  0  0  0  0
    5.4700   -1.5150   21.1470 C   0  0  0  0  0  0  0  0  0  0  0  0
    5.5590   -3.0170   21.0470 C   0  0  0  0  0  0  0  0  0  0  0  0
    4.8520   -3.6220   20.2080 O   0  0  0  0  0  0  0  0  0  0  0  0
    6.4110   -3.7750   21.8820 N   0  0  0  0  0  0  0  0  0  0  0  0
    7.5540   -3.1770   22.5510 C   0  0  0  0  0  0  0  0  0  0  0  0
    7.2140   -3.0990   23.9870 C   0  0  0  0  0  0  0  0  0  0  0  0
    6.2310   -4.0220   24.6050 C   0  0  0  0  0  0  0  0  0  0  0  0
    5.5380   -3.3710   25.5910 C   0  0  0  0  0  0  0  0  0  0  0  0
    4.3300   -3.0940   25.5930 O   0  0  0  0  0  0  0  0  0  0  0  0
    6.4270   -3.0530   26.6210 N   0  0  0  0  0  0  0  0  0  0  0  0
    6.4160   -1.7260   27.2200 C   0  0  0  0  0  0  0  0  0  0  0  0
    6.9700   -1.6230   28.4630 C   0  0  0  0  0  0  0  0  0  0  0  0
    7.0090   -0.4240   29.1290 C   0  0  0  0  0  0  0  0  0  0  0  0
    6.5070    0.7400   28.6100 C   0  0  0  0  0  0  0  0  0  0  0  0
    5.9370    0.6680   27.3450 C   0  0  0  0  0  0  0  0  0  0  0  0
    5.8900   -0.6130   26.6210 C   0  0  0  0  0  0  0  0  0  0  0  0
    5.1990   -4.6320   23.8810 C   0  0  0  0  0  0  0  0  0  0  0  0
    5.7500   -4.8470   22.5270 C   0  0  0  0  0  0  0  0  0  0  0  0
    4.8970   -0.9190   19.9160 C   0  0  0  0  0  0  0  0  0  0  0  0
    5.8740   -0.2670   18.9800 C   0  0  0  0  0  0  0  0  0  0  0  0
  1  2  1  0
  2  3  2  0
  2  4  1  0
  4  5  1  0
  5  6  1  0
  6  7  1  0
  7  8  1  0
  8  9  2  0
  8 10  1  0
 10 11  1  0
 11 12  1  0
 12 13  1  0
 13 14  1  0
 14 15  2  0
 14 16  1  0
 16 17  1  0
 17 18  2  0
 18 19  1  0
 19 20  2  0
 20 21  1  0
 17 22  1  0
 21 22  2  0
 13 23  1  0
 10 24  1  0
 23 24  1  0
  7 25  1  0
  4 26  1  0
 25 26  1  0
M  END
