piperidine-amides-8817-covalent
     RDKit          3D

 22 24  0  0  0  0  0  0  0  0999 V2000
    6.9590   -3.3780   19.4480 C   0  0  0  0  0  0  0  0  0  0  0  0
    6.3260   -4.2630   20.4360 C   0  0  0  0  0  0  0  0  0  0  0  0
    5.4230   -5.0050   20.0120 O   0  0  0  0  0  0  0  0  0  0  0  0
    6.7400   -4.2880   21.8050 N   0  0  0  0  0  0  0  0  0  0  0  0
    7.5320   -3.2230   22.3550 C   0  0  0  0  0  0  0  0  0  0  0  0
    6.8040   -2.6280   23.5290 C   0  0  0  0  0  0  0  0  0  0  0  0
    6.5360   -3.7460   24.5170 C   0  0  0  0  0  0  0  0  0  0  0  0
    5.6170   -3.2680   25.6620 C   0  0  0  0  0  0  0  0  0  0  0  0
    4.4060   -3.3420   25.4440 O   0  0  0  0  0  0  0  0  0  0  0  0
    6.1450   -2.7800   26.9100 N   0  0  0  0  0  0  0  0  0  0  0  0
    5.9630   -1.3970   27.4800 C   0  0  1  0  0  0  0  0  0  0  0  0
    6.9790   -0.7230   27.3060 C   0  0  0  0  0  0  0  0  0  0  0  0
    6.8440   -1.1020   26.2220 O   0  0  0  0  0  0  0  0  0  0  0  0
    5.8180   -0.6090   25.4700 C   0  0  0  0  0  0  0  0  0  0  0  0
    7.0270   -0.9090   25.2290 C   0  0  0  0  0  0  0  0  0  0  0  0
    7.0110   -1.3280   26.7420 C   0  0  0  0  0  0  0  0  0  0  0  0
    5.2800   -0.6230   26.1530 Br  0  0  0  0  0  0  0  0  0  0  0  0
    6.1600   -1.4690   28.1390 C   0  0  0  0  0  0  0  0  0  0  0  0
    4.7360   -1.0030   27.9640 C   0  0  0  0  0  0  0  0  0  0  0  0
    4.8890   -0.6500   26.5910 C   0  0  0  0  0  0  0  0  0  0  0  0
    5.9130   -4.9410   23.8810 C   0  0  0  0  0  0  0  0  0  0  0  0
    6.4870   -5.4050   22.6950 C   0  0  0  0  0  0  0  0  0  0  0  0
  1  2  1  0
  2  3  2  0
  2  4  1  0
  4  5  1  0
  5  6  1  0
  6  7  1  0
  7  8  1  0
  8  9  2  0
  8 10  1  0
 11 10  1  6
 11 12  1  0
 12 13  1  0
 13 14  1  0
 14 15  1  0
 15 16  2  0
 16 17  1  0
 16 18  1  0
 18 19  2  0
 11 20  1  0
 14 20  2  0
 19 20  1  0
  7 21  1  0
  4 22  1  0
 21 22  1  0
M  END
