piperidine-amides-11918-covalent
     RDKit          3D

 26 27  0  0  0  0  0  0  0  0999 V2000
    7.0380   -3.3790   19.3500 C   0  0  0  0  0  0  0  0  0  0  0  0
    6.3360   -4.1810   20.3440 C   0  0  0  0  0  0  0  0  0  0  0  0
    5.3830   -4.8770   19.9900 O   0  0  0  0  0  0  0  0  0  0  0  0
    6.7750   -4.2040   21.7130 N   0  0  0  0  0  0  0  0  0  0  0  0
    7.6670   -3.1680   22.1840 C   0  0  0  0  0  0  0  0  0  0  0  0
    7.4540   -2.9690   23.6480 C   0  0  0  0  0  0  0  0  0  0  0  0
    6.0870   -3.5490   23.9430 C   0  0  0  0  0  0  0  0  0  0  0  0
    5.6200   -3.1730   25.3090 C   0  0  0  0  0  0  0  0  0  0  0  0
    4.4130   -3.1180   25.6060 O   0  0  0  0  0  0  0  0  0  0  0  0
    6.5860   -2.8750   26.2910 N   0  0  0  0  0  0  0  0  0  0  0  0
    6.4950   -1.6590   27.0740 C   0  0  0  0  0  0  0  0  0  0  0  0
    5.8180   -0.4970   26.4200 C   0  0  0  0  0  0  0  0  0  0  0  0
    5.7020    0.6910   27.1150 C   0  0  0  0  0  0  0  0  0  0  0  0
    6.2170    0.7920   28.4170 C   0  0  0  0  0  0  0  0  0  0  0  0
    6.8500   -0.2750   29.0380 C   0  0  0  0  0  0  0  0  0  0  0  0
    7.5730   -0.4590   30.5690 S   0  0  0  0  0  0  0  0  0  0  0  0
    8.8250    0.3320   30.5940 O   0  0  0  0  0  0  0  0  0  0  0  0
    6.3550    0.1860   31.5560 C   0  0  0  0  0  0  0  0  0  0  0  0
    7.2000    0.9180   32.3680 C   0  0  0  0  0  0  0  0  0  0  0  0
    7.2830    2.3040   32.3780 O   0  0  0  0  0  0  0  0  0  0  0  0
    7.9860    0.2010   33.2040 N   0  0  0  0  0  0  0  0  0  0  0  0
    7.7050    0.3220   34.6060 C   0  0  0  0  0  0  0  0  0  0  0  0
    7.6070   -0.9370   35.1950 C   0  0  0  0  0  0  0  0  0  0  0  0
    6.9810   -1.4760   28.3680 C   0  0  0  0  0  0  0  0  0  0  0  0
    6.0100   -5.0520   23.7120 C   0  0  0  0  0  0  0  0  0  0  0  0
    6.6290   -5.3980   22.5030 C   0  0  0  0  0  0  0  0  0  0  0  0
  1  2  1  0
  2  3  2  0
  2  4  1  0
  4  5  1  0
  5  6  1  0
  6  7  1  0
  7  8  1  0
  8  9  2  0
  8 10  1  0
 10 11  1  0
 11 12  2  0
 12 13  1  0
 13 14  2  0
 14 15  1  0
 15 16  1  0
 16 17  2  0
 16 18  1  1
 18 19  1  0
 19 20  2  0
 19 21  1  0
 21 22  1  0
 22 23  1  0
 11 24  1  0
 15 24  2  0
  7 25  1  0
  4 26  1  0
 25 26  1  0
M  END
