piperidine-amides-6643-covalent
     RDKit          3D

 24 25  0  0  0  0  0  0  0  0999 V2000
    7.1360   -3.2720   19.1850 C   0  0  0  0  0  0  0  0  0  0  0  0
    6.3990   -4.0460   20.1950 C   0  0  0  0  0  0  0  0  0  0  0  0
    5.3150   -4.5950   19.9030 O   0  0  0  0  0  0  0  0  0  0  0  0
    6.9350   -4.2240   21.4720 N   0  0  0  0  0  0  0  0  0  0  0  0
    7.7250   -3.1700   22.0700 C   0  0  0  0  0  0  0  0  0  0  0  0
    6.8690   -2.5940   23.1850 C   0  0  0  0  0  0  0  0  0  0  0  0
    6.6140   -3.7570   24.1010 C   0  0  0  0  0  0  0  0  0  0  0  0
    5.8360   -3.2770   25.2440 C   0  0  0  0  0  0  0  0  0  0  0  0
    4.6370   -2.9730   25.0660 O   0  0  0  0  0  0  0  0  0  0  0  0
    6.4520   -3.1750   26.5050 N   0  0  0  0  0  0  0  0  0  0  0  0
    5.7240   -3.6340   27.6390 C   0  0  2  0  0  0  0  0  0  0  0  0
    5.7160   -2.5310   28.6890 C   0  0  0  0  0  0  0  0  0  0  0  0
    6.7900   -1.7670   29.1650 C   0  0  0  0  0  0  0  0  0  0  0  0
    6.6420   -0.7820   30.1280 C   0  0  0  0  0  0  0  0  0  0  0  0
    7.8340   -0.1510   30.4490 F   0  0  0  0  0  0  0  0  0  0  0  0
    5.4210   -0.4800   30.6950 C   0  0  0  0  0  0  0  0  0  0  0  0
    4.3020   -1.1350   30.3300 C   0  0  0  0  0  0  0  0  0  0  0  0
    4.3430   -2.2190   29.2960 C   0  0  0  0  0  0  0  0  0  0  0  0
    3.1370   -2.8520   28.9700 F   0  0  0  0  0  0  0  0  0  0  0  0
    6.2760   -4.9300   28.1420 C   0  0  0  0  0  0  0  0  0  0  0  0
    7.2850   -4.8320   29.0110 F   0  0  0  0  0  0  0  0  0  0  0  0
    5.2400   -5.5580   28.8370 F   0  0  0  0  0  0  0  0  0  0  0  0
    5.8790   -4.8880   23.4930 C   0  0  0  0  0  0  0  0  0  0  0  0
    6.5280   -5.3290   22.2640 C   0  0  0  0  0  0  0  0  0  0  0  0
  1  2  1  0
  2  3  2  0
  2  4  1  0
  4  5  1  0
  5  6  1  0
  6  7  1  0
  7  8  1  0
  8  9  2  0
  8 10  1  0
 11 10  1  6
 11 12  1  0
 12 13  2  0
 13 14  1  0
 14 15  1  0
 14 16  2  0
 16 17  1  0
 12 18  1  0
 17 18  2  0
 18 19  1  0
 11 20  1  0
 20 21  1  0
 20 22  1  0
  7 23  1  0
  4 24  1  0
 23 24  1  0
M  END
