piperidine-amides-9240-covalent
     RDKit          3D

 20 21  0  0  0  0  0  0  0  0999 V2000
    7.1100   -3.2760   19.1940 C   0  0  0  0  0  0  0  0  0  0  0  0
    6.3570   -4.0280   20.2020 C   0  0  0  0  0  0  0  0  0  0  0  0
    5.2790   -4.5510   19.8820 O   0  0  0  0  0  0  0  0  0  0  0  0
    6.8530   -4.2230   21.5030 N   0  0  0  0  0  0  0  0  0  0  0  0
    6.5380   -5.3860   22.2870 C   0  0  0  0  0  0  0  0  0  0  0  0
    5.8390   -4.8590   23.5150 C   0  0  0  0  0  0  0  0  0  0  0  0
    6.5980   -3.7420   24.1770 C   0  0  0  0  0  0  0  0  0  0  0  0
    5.8850   -3.1670   25.3460 C   0  0  0  0  0  0  0  0  0  0  0  0
    4.6590   -2.8550   25.2570 O   0  0  0  0  0  0  0  0  0  0  0  0
    6.5100   -2.9330   26.5920 N   0  0  0  0  0  0  0  0  0  0  0  0
    6.1480   -3.7220   27.7950 C   0  0  0  0  0  0  0  0  0  0  0  0
    5.3540   -4.8940   27.3640 C   0  0  0  0  0  0  0  0  0  0  0  0
    5.4560   -6.0050   28.1430 N   0  0  0  0  0  0  0  0  0  0  0  0
    4.7270   -7.1600   27.8060 C   0  0  0  0  0  0  0  0  0  0  0  0
    3.9480   -6.8920   26.5750 C   0  0  0  0  0  0  0  0  0  0  0  0
    3.0050   -7.7760   25.7830 C   0  0  0  0  0  0  0  0  0  0  0  0
    3.4320   -7.5830   24.3770 C   0  0  0  0  0  0  0  0  0  0  0  0
    4.2770   -5.2180   26.0580 S   0  0  0  0  0  0  0  0  0  0  0  0
    6.9110   -2.6640   23.1700 C   0  0  0  0  0  0  0  0  0  0  0  0
    7.6450   -3.1720   22.1000 C   0  0  0  0  0  0  0  0  0  0  0  0
  1  2  1  0
  2  3  2  0
  2  4  1  0
  4  5  1  0
  5  6  1  0
  6  7  1  0
  7  8  1  0
  8  9  2  0
  8 10  1  0
 10 11  1  0
 11 12  1  0
 12 13  2  0
 13 14  1  0
 14 15  2  0
 15 16  1  0
 16 17  1  0
 12 18  1  0
 15 18  1  0
  7 19  1  0
  4 20  1  0
 19 20  1  0
M  END
