piperidine-amides-6880-covalent
     RDKit          3D

 22 23  0  0  0  0  0  0  0  0999 V2000
    7.0200   -3.3030   19.3120 C   0  0  0  0  0  0  0  0  0  0  0  0
    6.3350   -4.1210   20.3300 C   0  0  0  0  0  0  0  0  0  0  0  0
    5.3740   -4.8420   19.9830 O   0  0  0  0  0  0  0  0  0  0  0  0
    6.7490   -4.1450   21.6780 N   0  0  0  0  0  0  0  0  0  0  0  0
    7.6390   -3.1060   22.1720 C   0  0  0  0  0  0  0  0  0  0  0  0
    7.4790   -3.0710   23.6930 C   0  0  0  0  0  0  0  0  0  0  0  0
    6.0980   -3.6170   23.9370 C   0  0  0  0  0  0  0  0  0  0  0  0
    5.5810   -3.3400   25.3000 C   0  0  0  0  0  0  0  0  0  0  0  0
    4.3410   -3.3100   25.4390 O   0  0  0  0  0  0  0  0  0  0  0  0
    6.4480   -3.1140   26.4020 N   0  0  0  0  0  0  0  0  0  0  0  0
    6.2390   -3.7750   27.6780 C   0  0  2  0  0  0  0  0  0  0  0  0
    5.8930   -5.2400   27.4430 C   0  0  0  0  0  0  0  0  0  0  0  0
    5.1670   -3.0810   28.4420 C   0  0  0  0  0  0  0  0  0  0  0  0
    3.8970   -3.4810   28.5590 C   0  0  0  0  0  0  0  0  0  0  0  0
    3.0470   -2.7250   29.3080 C   0  0  0  0  0  0  0  0  0  0  0  0
    1.2400   -3.3040   29.4750 Br  0  0  0  0  0  0  0  0  0  0  0  0
    3.4840   -1.5790   29.9280 C   0  0  0  0  0  0  0  0  0  0  0  0
    4.8680   -0.9010   29.9570 C   0  0  0  0  0  0  0  0  0  0  0  0
    5.5850   -1.9320   29.0680 C   0  0  0  0  0  0  0  0  0  0  0  0
    7.0330   -1.6860   28.7990 C   0  0  0  0  0  0  0  0  0  0  0  0
    6.0640   -5.1020   23.6650 C   0  0  0  0  0  0  0  0  0  0  0  0
    6.6800   -5.3850   22.4270 C   0  0  0  0  0  0  0  0  0  0  0  0
  1  2  1  0
  2  3  2  0
  2  4  1  0
  4  5  1  0
  5  6  1  0
  6  7  1  0
  7  8  1  0
  8  9  2  0
  8 10  1  0
 10 11  1  0
 11 12  1  6
 11 13  1  0
 13 14  2  0
 14 15  1  0
 15 16  1  0
 15 17  2  0
 17 18  1  0
 13 19  1  0
 18 19  2  0
 19 20  1  0
  7 21  1  0
  4 22  1  0
 21 22  1  0
M  END
