piperidine-amides-69-covalent
     RDKit          3D

 28 29  0  0  0  0  0  0  0  0999 V2000
    7.0720   -3.3080   19.1600 C   0  0  0  0  0  0  0  0  0  0  0  0
    6.2980   -3.9630   20.1900 C   0  0  0  0  0  0  0  0  0  0  0  0
    5.2140   -4.5200   19.8590 O   0  0  0  0  0  0  0  0  0  0  0  0
    6.7160   -4.0580   21.5220 N   0  0  0  0  0  0  0  0  0  0  0  0
    7.6260   -2.9870   21.9980 C   0  0  0  0  0  0  0  0  0  0  0  0
    7.4470   -3.1390   23.5420 C   0  0  0  0  0  0  0  0  0  0  0  0
    6.0460   -3.6750   23.6880 C   0  0  0  0  0  0  0  0  0  0  0  0
    5.3220   -3.1320   24.9870 C   0  0  0  0  0  0  0  0  0  0  0  0
    4.7260   -2.0880   24.7700 O   0  0  0  0  0  0  0  0  0  0  0  0
    5.5520   -3.9560   25.9190 N   0  0  0  0  0  0  0  0  0  0  0  0
    5.7390   -4.8720   26.8990 C   0  0  0  0  0  0  0  0  0  0  0  0
    6.3690   -6.0260   27.2000 C   0  0  0  0  0  0  0  0  0  0  0  0
    7.7050   -5.7860   27.7210 N   0  0  0  0  0  0  0  0  0  0  0  0
    8.7700   -5.6160   26.9350 C   0  0  0  0  0  0  0  0  0  0  0  0
    8.3640   -4.5760   25.9420 C   0  0  0  0  0  0  0  0  0  0  0  0
    7.3140   -3.7160   26.3690 O   0  0  0  0  0  0  0  0  0  0  0  0
    7.3850   -3.4380   27.7250 C   0  0  0  0  0  0  0  0  0  0  0  0
    7.9050   -2.1600   27.8610 C   0  0  0  0  0  0  0  0  0  0  0  0
    6.8580   -1.2490   27.9470 F   0  0  0  0  0  0  0  0  0  0  0  0
    8.6650   -1.9860   29.0190 F   0  0  0  0  0  0  0  0  0  0  0  0
    8.6220   -1.8950   26.7530 F   0  0  0  0  0  0  0  0  0  0  0  0
    6.3710   -2.4700   28.3660 C   0  0  0  0  0  0  0  0  0  0  0  0
    5.7720   -3.0810   29.4730 F   0  0  0  0  0  0  0  0  0  0  0  0
    6.9340   -1.3290   28.8870 F   0  0  0  0  0  0  0  0  0  0  0  0
    5.3320   -2.2200   27.4870 F   0  0  0  0  0  0  0  0  0  0  0  0
    7.7180   -4.6110   28.5290 C   0  0  0  0  0  0  0  0  0  0  0  0
    5.9540   -5.1330   23.3670 C   0  0  0  0  0  0  0  0  0  0  0  0
    6.6380   -5.3260   22.1940 C   0  0  0  0  0  0  0  0  0  0  0  0
  1  2  1  0
  2  3  2  0
  2  4  1  0
  4  5  1  0
  5  6  1  0
  6  7  1  0
  7  8  1  0
  8  9  2  0
  8 10  1  0
 10 11  1  0
 11 12  1  0
 12 13  1  0
 13 14  1  0
 14 15  1  0
 15 16  1  0
 17 16  1  0
 17 18  1  0
 18 19  1  0
 18 20  1  0
 18 21  1  0
 17 22  1  0
 22 23  1  0
 22 24  1  0
 22 25  1  0
 13 26  1  0
 17 26  1  0
  7 27  1  0
  4 28  1  0
 27 28  1  0
M  END
