piperidine-amides-5482-covalent
     RDKit          3D

 20 21  0  0  0  0  0  0  0  0999 V2000
    7.1440   -3.2640   19.1740 C   0  0  0  0  0  0  0  0  0  0  0  0
    6.3780   -3.9950   20.1840 C   0  0  0  0  0  0  0  0  0  0  0  0
    5.2990   -4.5240   19.8760 O   0  0  0  0  0  0  0  0  0  0  0  0
    6.8780   -4.1500   21.4840 N   0  0  0  0  0  0  0  0  0  0  0  0
    7.7050   -3.1620   22.1360 C   0  0  0  0  0  0  0  0  0  0  0  0
    6.8900   -2.7050   23.3060 C   0  0  0  0  0  0  0  0  0  0  0  0
    6.5790   -3.8600   24.2110 C   0  0  0  0  0  0  0  0  0  0  0  0
    5.8380   -3.4100   25.4110 C   0  0  0  0  0  0  0  0  0  0  0  0
    4.6280   -3.0500   25.3250 O   0  0  0  0  0  0  0  0  0  0  0  0
    6.4410   -3.3480   26.6840 N   0  0  0  0  0  0  0  0  0  0  0  0
    6.0200   -4.2560   27.7730 C   0  0  2  0  0  0  0  0  0  0  0  0
    7.1480   -5.1140   28.1720 C   0  0  0  0  0  0  0  0  0  0  0  0
    6.7610   -6.3570   28.8320 C   0  0  0  0  0  0  0  0  0  0  0  0
    4.8810   -5.1710   27.4060 C   0  0  0  0  0  0  0  0  0  0  0  0
    5.1410   -5.9820   26.1910 C   0  0  0  0  0  0  0  0  0  0  0  0
    4.0200   -6.8750   25.8560 C   0  0  0  0  0  0  0  0  0  0  0  0
    2.9270   -6.8190   26.7030 C   0  0  0  0  0  0  0  0  0  0  0  0
    3.2430   -5.6620   27.9450 S   0  0  0  0  0  0  0  0  0  0  0  0
    5.7760   -4.9080   23.4720 C   0  0  0  0  0  0  0  0  0  0  0  0
    6.5510   -5.3370   22.2460 C   0  0  0  0  0  0  0  0  0  0  0  0
  1  2  1  0
  2  3  2  0
  2  4  1  0
  4  5  1  0
  5  6  1  0
  6  7  1  0
  7  8  1  0
  8  9  2  0
  8 10  1  0
 10 11  1  0
 11 12  1  6
 12 13  1  0
 11 14  1  0
 14 15  2  0
 15 16  1  0
 16 17  2  0
 14 18  1  0
 17 18  1  0
  7 19  1  0
  4 20  1  0
 19 20  1  0
M  END
