piperidine-amides-30495-covalent
     RDKit          3D

 26 28  0  0  0  0  0  0  0  0999 V2000
    7.0240   -3.3720   19.4300 C   0  0  0  0  0  0  0  0  0  0  0  0
    6.3820   -4.2590   20.4060 C   0  0  0  0  0  0  0  0  0  0  0  0
    5.4110   -4.9310   20.0080 O   0  0  0  0  0  0  0  0  0  0  0  0
    6.8430   -4.4210   21.7420 N   0  0  0  0  0  0  0  0  0  0  0  0
    6.6050   -5.6010   22.5170 C   0  0  0  0  0  0  0  0  0  0  0  0
    5.9020   -5.1360   23.7790 C   0  0  0  0  0  0  0  0  0  0  0  0
    6.3090   -3.7790   24.3220 C   0  0  0  0  0  0  0  0  0  0  0  0
    5.2540   -3.2480   25.2720 C   0  0  0  0  0  0  0  0  0  0  0  0
    4.1550   -2.8840   24.7850 O   0  0  0  0  0  0  0  0  0  0  0  0
    5.3440   -3.1110   26.7000 N   0  0  0  0  0  0  0  0  0  0  0  0
    4.2730   -3.4930   27.5940 C   0  0  0  0  0  0  0  0  0  0  0  0
    4.5680   -4.8920   27.9360 C   0  0  0  0  0  0  0  0  0  0  0  0
    5.4670   -4.9750   28.9260 N   0  0  0  0  0  0  0  0  0  0  0  0
    5.5990   -6.1640   29.7080 C   0  0  0  0  0  0  0  0  0  0  0  0
    6.2250   -6.3120   30.7630 O   0  0  0  0  0  0  0  0  0  0  0  0
    4.8170   -7.2630   29.0220 C   0  0  0  0  0  0  0  0  0  0  0  0
    3.7850   -7.7260   30.0390 C   0  0  0  0  0  0  0  0  0  0  0  0
    3.8800   -7.9240   31.3800 N   0  0  0  0  0  0  0  0  0  0  0  0
    2.7070   -8.3370   31.7900 C   0  0  0  0  0  0  0  0  0  0  0  0
    2.0500   -8.7280   32.9260 C   0  0  0  0  0  0  0  0  0  0  0  0
    1.4890   -8.5520   30.9800 C   0  0  0  0  0  0  0  0  0  0  0  0
    2.0830   -8.1120   29.4230 S   0  0  0  0  0  0  0  0  0  0  0  0
    6.5260   -4.6300   28.1250 C   0  0  0  0  0  0  0  0  0  0  0  0
    6.5620   -3.2620   27.3590 C   0  0  0  0  0  0  0  0  0  0  0  0
    6.5980   -2.8100   23.1440 C   0  0  0  0  0  0  0  0  0  0  0  0
    7.4550   -3.2940   22.4340 C   0  0  0  0  0  0  0  0  0  0  0  0
  1  2  1  0
  2  3  2  0
  2  4  1  0
  4  5  1  0
  5  6  1  0
  6  7  1  0
  7  8  1  0
  8  9  2  0
  8 10  1  0
 10 11  1  0
 11 12  1  0
 12 13  1  0
 13 14  1  0
 14 15  2  0
 14 16  1  0
 16 17  1  0
 17 18  2  0
 18 19  1  0
 19 20  1  0
 19 21  2  0
 17 22  1  0
 21 22  1  0
 13 23  1  0
 10 24  1  0
 23 24  1  0
  7 25  1  0
  4 26  1  0
 25 26  1  0
M  END
