piperidine-amides-32666-covalent
     RDKit          3D

 29 32  0  0  0  0  0  0  0  0999 V2000
    7.0840   -3.3120   19.3200 C   0  0  0  0  0  0  0  0  0  0  0  0
    6.3600   -4.1680   20.3000 C   0  0  0  0  0  0  0  0  0  0  0  0
    5.3120   -4.7250   19.9410 O   0  0  0  0  0  0  0  0  0  0  0  0
    6.8880   -4.3920   21.5920 N   0  0  0  0  0  0  0  0  0  0  0  0
    6.4160   -5.5000   22.3620 C   0  0  0  0  0  0  0  0  0  0  0  0
    5.4940   -4.8670   23.4050 C   0  0  0  0  0  0  0  0  0  0  0  0
    6.3650   -3.9970   24.2470 C   0  0  0  0  0  0  0  0  0  0  0  0
    5.6210   -3.2480   25.2910 C   0  0  0  0  0  0  0  0  0  0  0  0
    4.5680   -2.7310   24.9050 O   0  0  0  0  0  0  0  0  0  0  0  0
    6.0670   -3.1270   26.6260 N   0  0  0  0  0  0  0  0  0  0  0  0
    6.2270   -1.8330   27.2280 C   0  0  0  0  0  0  0  0  0  0  0  0
    5.7190   -0.6480   26.7040 C   0  0  0  0  0  0  0  0  0  0  0  0
    5.8610    0.6230   27.3070 C   0  0  0  0  0  0  0  0  0  0  0  0
    6.5380    0.7750   28.4920 C   0  0  0  0  0  0  0  0  0  0  0  0
    7.1170   -0.4400   29.1220 C   0  0  0  0  0  0  0  0  0  0  0  0
    6.9390   -1.7910   28.4370 C   0  0  0  0  0  0  0  0  0  0  0  0
    7.8080   -0.3880   30.3020 C   0  0  0  0  0  0  0  0  0  0  0  0
    7.7160    0.7610   31.0750 C   0  0  0  0  0  0  0  0  0  0  0  0
    7.4060    1.9950   30.3240 C   0  0  0  0  0  0  0  0  0  0  0  0
    7.8270    3.0260   30.8860 O   0  0  0  0  0  0  0  0  0  0  0  0
    6.6950    1.9700   29.0930 N   0  0  0  0  0  0  0  0  0  0  0  0
    5.5470   -4.2740   27.4030 C   0  0  0  0  0  0  0  0  0  0  0  0
    4.7350   -5.0740   26.6200 C   0  0  0  0  0  0  0  0  0  0  0  0
    4.0370   -4.6320   27.9440 C   0  0  0  0  0  0  0  0  0  0  0  0
    4.2170   -5.4060   28.9340 O   0  0  0  0  0  0  0  0  0  0  0  0
    5.5320   -5.8610   29.0830 C   0  0  0  0  0  0  0  0  0  0  0  0
    6.4330   -5.0800   28.1300 C   0  0  0  0  0  0  0  0  0  0  0  0
    7.1080   -2.9080   23.4820 C   0  0  0  0  0  0  0  0  0  0  0  0
    7.5650   -3.3100   22.2320 C   0  0  0  0  0  0  0  0  0  0  0  0
  1  2  1  0
  2  3  2  0
  2  4  1  0
  4  5  1  0
  5  6  1  0
  6  7  1  0
  7  8  1  0
  8  9  2  0
  8 10  1  0
 10 11  1  0
 11 12  2  0
 12 13  1  0
 13 14  2  0
 14 15  1  0
 11 16  1  0
 15 16  2  0
 15 17  1  0
 17 18  1  0
 18 19  1  0
 19 20  2  0
 14 21  1  0
 19 21  1  0
 10 22  1  0
 22 23  1  0
 23 24  1  0
 24 25  1  0
 25 26  1  0
 22 27  1  0
 26 27  1  0
  7 28  1  0
  4 29  1  0
 28 29  1  0
M  END
