piperidine-amides-9115-covalent
     RDKit          3D

 21 22  0  0  0  0  0  0  0  0999 V2000
    7.1030   -3.2940   19.2440 C   0  0  0  0  0  0  0  0  0  0  0  0
    6.3620   -4.0790   20.2350 C   0  0  0  0  0  0  0  0  0  0  0  0
    5.2850   -4.5990   19.9010 O   0  0  0  0  0  0  0  0  0  0  0  0
    6.8670   -4.3070   21.5250 N   0  0  0  0  0  0  0  0  0  0  0  0
    7.6350   -3.3420   22.2660 C   0  0  0  0  0  0  0  0  0  0  0  0
    6.7060   -2.8660   23.3480 C   0  0  0  0  0  0  0  0  0  0  0  0
    6.1140   -3.9910   24.1600 C   0  0  0  0  0  0  0  0  0  0  0  0
    5.0600   -3.4640   25.0720 C   0  0  0  0  0  0  0  0  0  0  0  0
    4.5010   -2.3610   24.8090 O   0  0  0  0  0  0  0  0  0  0  0  0
    4.6090   -4.1100   26.2500 N   0  0  0  0  0  0  0  0  0  0  0  0
    4.3830   -3.2920   27.4600 C   0  0  0  0  0  0  0  0  0  0  0  0
    5.6830   -2.7240   27.6710 C   0  0  0  0  0  0  0  0  0  0  0  0
    6.5680   -2.9530   26.5590 C   0  0  0  0  0  0  0  0  0  0  0  0
    7.9310   -2.4490   26.6060 C   0  0  0  0  0  0  0  0  0  0  0  0
    8.8680   -2.8110   25.1470 Cl  0  0  0  0  0  0  0  0  0  0  0  0
    8.3070   -1.7080   27.8760 C   0  0  0  0  0  0  0  0  0  0  0  0
    7.2640   -1.5410   28.9340 C   0  0  0  0  0  0  0  0  0  0  0  0
    7.6480   -0.6570   30.4030 Cl  0  0  0  0  0  0  0  0  0  0  0  0
    6.0100   -2.0520   28.7960 C   0  0  0  0  0  0  0  0  0  0  0  0
    5.4940   -5.0650   23.2930 C   0  0  0  0  0  0  0  0  0  0  0  0
    6.4990   -5.5050   22.2490 C   0  0  0  0  0  0  0  0  0  0  0  0
  1  2  1  0
  2  3  2  0
  2  4  1  0
  4  5  1  0
  5  6  1  0
  6  7  1  0
  7  8  1  0
  8  9  2  0
  8 10  1  0
 10 11  1  0
 11 12  1  0
 12 13  2  0
 13 14  1  0
 14 15  1  0
 14 16  2  0
 16 17  1  0
 17 18  1  0
 12 19  1  0
 17 19  2  0
  7 20  1  0
  4 21  1  0
 20 21  1  0
M  END
