piperidine-amides-33952-covalent
     RDKit          3D

 29 31  0  0  0  0  0  0  0  0999 V2000
    7.1430   -3.2810   19.2430 C   0  0  0  0  0  0  0  0  0  0  0  0
    6.3560   -4.0210   20.2340 C   0  0  0  0  0  0  0  0  0  0  0  0
    5.2880   -4.5750   19.9010 O   0  0  0  0  0  0  0  0  0  0  0  0
    6.8290   -4.1620   21.5440 N   0  0  0  0  0  0  0  0  0  0  0  0
    7.6680   -3.1370   22.1290 C   0  0  0  0  0  0  0  0  0  0  0  0
    6.9130   -2.6160   23.3520 C   0  0  0  0  0  0  0  0  0  0  0  0
    6.5650   -3.8280   24.1820 C   0  0  0  0  0  0  0  0  0  0  0  0
    5.7440   -3.3860   25.3310 C   0  0  0  0  0  0  0  0  0  0  0  0
    4.5070   -3.3030   25.1760 O   0  0  0  0  0  0  0  0  0  0  0  0
    6.3610   -3.0490   26.5600 N   0  0  0  0  0  0  0  0  0  0  0  0
    6.7340   -1.6780   26.7560 C   0  0  0  0  0  0  0  0  0  0  0  0
    6.0970   -3.8420   27.7510 C   0  0  0  0  0  0  0  0  0  0  0  0
    5.1910   -4.8370   27.4580 C   0  0  0  0  0  0  0  0  0  0  0  0
    5.2540   -5.6700   26.4100 C   0  0  0  0  0  0  0  0  0  0  0  0
    4.2530   -6.5820   26.3040 C   0  0  0  0  0  0  0  0  0  0  0  0
    4.2470   -7.4690   25.2460 F   0  0  0  0  0  0  0  0  0  0  0  0
    3.2300   -6.6770   27.2000 C   0  0  0  0  0  0  0  0  0  0  0  0
    2.9420   -5.8530   28.4650 C   0  0  0  0  0  0  0  0  0  0  0  0
    4.1670   -4.9080   28.3770 C   0  0  0  0  0  0  0  0  0  0  0  0
    4.0240   -4.1710   29.3800 O   0  0  0  0  0  0  0  0  0  0  0  0
    3.8840   -4.8930   30.5730 C   0  0  0  0  0  0  0  0  0  0  0  0
    2.8170   -4.3350   31.4260 C   0  0  0  0  0  0  0  0  0  0  0  0
    2.5580   -4.9450   32.6740 C   0  0  0  0  0  0  0  0  0  0  0  0
    3.2840   -6.0310   33.0860 C   0  0  0  0  0  0  0  0  0  0  0  0
    4.3750   -6.6370   32.2640 C   0  0  0  0  0  0  0  0  0  0  0  0
    5.2610   -8.0190   32.8660 Cl  0  0  0  0  0  0  0  0  0  0  0  0
    4.6370   -5.9890   30.9420 C   0  0  0  0  0  0  0  0  0  0  0  0
    5.8210   -4.9320   23.4850 C   0  0  0  0  0  0  0  0  0  0  0  0
    6.3900   -5.3030   22.2930 C   0  0  0  0  0  0  0  0  0  0  0  0
  1  2  1  0
  2  3  2  0
  2  4  1  0
  4  5  1  0
  5  6  1  0
  6  7  1  0
  7  8  1  0
  8  9  2  0
  8 10  1  0
 10 11  1  0
 10 12  1  0
 12 13  1  0
 13 14  2  0
 14 15  1  0
 15 16  1  0
 15 17  2  0
 17 18  1  0
 13 19  1  0
 18 19  2  0
 19 20  1  0
 20 21  1  0
 21 22  2  0
 22 23  1  0
 23 24  2  0
 24 25  1  0
 25 26  1  0
 21 27  1  0
 25 27  2  0
  7 28  1  0
  4 29  1  0
 28 29  1  0
M  END
