piperidine-amides-11851-covalent
     RDKit          3D

 26 28  0  0  0  0  0  0  0  0999 V2000
    7.0120   -3.3450   19.3130 C   0  0  0  0  0  0  0  0  0  0  0  0
    6.3290   -4.1590   20.3200 C   0  0  0  0  0  0  0  0  0  0  0  0
    5.3650   -4.8440   19.9800 O   0  0  0  0  0  0  0  0  0  0  0  0
    6.7990   -4.2020   21.6810 N   0  0  0  0  0  0  0  0  0  0  0  0
    7.6660   -3.1510   22.1620 C   0  0  0  0  0  0  0  0  0  0  0  0
    7.4620   -2.9650   23.6270 C   0  0  0  0  0  0  0  0  0  0  0  0
    6.1080   -3.5600   23.9290 C   0  0  0  0  0  0  0  0  0  0  0  0
    5.6650   -3.1680   25.2950 C   0  0  0  0  0  0  0  0  0  0  0  0
    4.4720   -3.2150   25.6510 O   0  0  0  0  0  0  0  0  0  0  0  0
    6.6490   -2.7220   26.2070 N   0  0  0  0  0  0  0  0  0  0  0  0
    6.4190   -1.5230   26.9920 C   0  0  0  0  0  0  0  0  0  0  0  0
    7.0160   -1.7140   28.3780 C   0  0  0  0  0  0  0  0  0  0  0  0
    6.6140   -0.4930   28.7400 N   0  0  0  0  0  0  0  0  0  0  0  0
    5.9790    0.1650   27.8030 N   0  0  0  0  0  0  0  0  0  0  0  0
    5.5090    1.5030   28.1340 C   0  0  0  0  0  0  0  0  0  0  0  0
    4.3470    1.2800   28.8940 C   0  0  0  0  0  0  0  0  0  0  0  0
    3.9870    0.0040   29.3310 C   0  0  0  0  0  0  0  0  0  0  0  0
    2.7810   -0.1680   30.1120 C   0  0  0  0  0  0  0  0  0  0  0  0
    2.5300   -1.4620   30.4840 F   0  0  0  0  0  0  0  0  0  0  0  0
    1.9710    0.8610   30.4450 C   0  0  0  0  0  0  0  0  0  0  0  0
    2.3400    2.1070   30.0090 C   0  0  0  0  0  0  0  0  0  0  0  0
    3.4990    2.3350   29.2490 C   0  0  0  0  0  0  0  0  0  0  0  0
    3.8240    3.9880   28.7700 Cl  0  0  0  0  0  0  0  0  0  0  0  0
    5.7350   -0.3920   26.4690 C   0  0  0  0  0  0  0  0  0  0  0  0
    6.0620   -5.0650   23.7160 C   0  0  0  0  0  0  0  0  0  0  0  0
    6.6300   -5.3940   22.4770 C   0  0  0  0  0  0  0  0  0  0  0  0
  1  2  1  0
  2  3  2  0
  2  4  1  0
  4  5  1  0
  5  6  1  0
  6  7  1  0
  7  8  1  0
  8  9  2  0
  8 10  1  0
 10 11  1  0
 11 12  1  0
 12 13  2  0
 13 14  1  0
 14 15  1  0
 15 16  1  0
 16 17  2  0
 17 18  1  0
 18 19  1  0
 18 20  2  0
 20 21  1  0
 16 22  1  0
 21 22  2  0
 22 23  1  0
 11 24  2  0
 14 24  1  0
  7 25  1  0
  4 26  1  0
 25 26  1  0
M  END
