piperidine-amides-31257-covalent
     RDKit          3D

 23 24  0  0  0  0  0  0  0  0999 V2000
    7.0390   -3.3350   19.3350 C   0  0  0  0  0  0  0  0  0  0  0  0
    6.3690   -4.1480   20.3550 C   0  0  0  0  0  0  0  0  0  0  0  0
    5.4210   -4.8730   19.9980 O   0  0  0  0  0  0  0  0  0  0  0  0
    6.8000   -4.1560   21.7040 N   0  0  0  0  0  0  0  0  0  0  0  0
    7.7410   -3.1680   22.2150 C   0  0  0  0  0  0  0  0  0  0  0  0
    7.4710   -2.9970   23.6860 C   0  0  0  0  0  0  0  0  0  0  0  0
    6.1310   -3.5560   24.0280 C   0  0  0  0  0  0  0  0  0  0  0  0
    5.5950   -3.1760   25.3700 C   0  0  0  0  0  0  0  0  0  0  0  0
    4.3390   -3.1200   25.5110 O   0  0  0  0  0  0  0  0  0  0  0  0
    6.3450   -2.8690   26.5410 N   0  0  0  0  0  0  0  0  0  0  0  0
    6.2340   -3.8660   27.6350 C   0  0  0  0  0  0  0  0  0  0  0  0
    6.2910   -1.4490   27.0130 C   0  0  0  0  0  0  0  0  0  0  0  0
    5.7080   -0.4800   26.0890 C   0  0  0  0  0  0  0  0  0  0  0  0
    5.6360    0.9580   26.5690 C   0  0  0  0  0  0  0  0  0  0  0  0
    6.1470    1.3700   27.9430 C   0  0  0  0  0  0  0  0  0  0  0  0
    6.0710    3.1820   28.5890 Br  0  0  0  0  0  0  0  0  0  0  0  0
    6.6930    0.2240   28.6910 C   0  0  0  0  0  0  0  0  0  0  0  0
    6.7410   -1.0470   28.2320 C   0  0  0  0  0  0  0  0  0  0  0  0
    7.2930   -2.0500   29.0680 N   0  0  0  0  0  0  0  0  0  0  0  0
    6.2950   -2.5810   29.7170 O   0  0  0  0  0  0  0  0  0  0  0  0
    8.4130   -1.6510   29.7480 O   0  0  0  0  0  0  0  0  0  0  0  0
    6.1020   -5.0520   23.8380 C   0  0  0  0  0  0  0  0  0  0  0  0
    6.6760   -5.3900   22.4690 C   0  0  0  0  0  0  0  0  0  0  0  0
  1  2  1  0
  2  3  2  0
  2  4  1  0
  4  5  1  0
  5  6  1  0
  6  7  1  0
  7  8  1  0
  8  9  2  0
  8 10  1  0
 10 11  1  0
 10 12  1  0
 12 13  2  0
 13 14  1  0
 14 15  2  0
 15 16  1  0
 15 17  1  0
 12 18  1  0
 17 18  2  0
 18 19  1  0
 19 20  2  0
 19 21  1  0
  7 22  1  0
  4 23  1  0
 22 23  1  0
M  CHG  2  19   1  21  -1
M  END
