piperidine-amides-30038-covalent
     RDKit          3D

 27 29  0  0  0  0  0  0  0  0999 V2000
    7.0570   -3.3570   19.3940 C   0  0  0  0  0  0  0  0  0  0  0  0
    6.3930   -4.2320   20.3540 C   0  0  0  0  0  0  0  0  0  0  0  0
    5.4120   -4.8890   19.9950 O   0  0  0  0  0  0  0  0  0  0  0  0
    6.9040   -4.3650   21.7000 N   0  0  0  0  0  0  0  0  0  0  0  0
    7.7450   -3.3120   22.2560 C   0  0  0  0  0  0  0  0  0  0  0  0
    7.4360   -3.0710   23.7110 C   0  0  0  0  0  0  0  0  0  0  0  0
    6.1110   -3.7510   23.9650 C   0  0  0  0  0  0  0  0  0  0  0  0
    5.4820   -3.4120   25.2800 C   0  0  0  0  0  0  0  0  0  0  0  0
    4.3880   -2.8220   25.3110 O   0  0  0  0  0  0  0  0  0  0  0  0
    6.0660   -3.7370   26.5270 N   0  0  0  0  0  0  0  0  0  0  0  0
    5.5170   -4.9310   27.1510 C   0  0  0  0  0  0  0  0  0  0  0  0
    5.4330   -4.8350   28.6650 C   0  0  0  0  0  0  0  0  0  0  0  0
    5.6600   -3.7110   29.3450 N   0  0  0  0  0  0  0  0  0  0  0  0
    4.4950   -3.0480   29.5120 C   0  0  0  0  0  0  0  0  0  0  0  0
    3.7480   -2.9510   30.6930 C   0  0  0  0  0  0  0  0  0  0  0  0
    3.0440   -4.0490   31.1560 C   0  0  0  0  0  0  0  0  0  0  0  0
    3.6510   -5.3650   31.1010 C   0  0  0  0  0  0  0  0  0  0  0  0
    2.9830   -6.4600   31.5460 C   0  0  0  0  0  0  0  0  0  0  0  0
    1.7260   -6.2240   32.0390 C   0  0  0  0  0  0  0  0  0  0  0  0
    1.0480   -7.3400   32.4940 O   0  0  0  0  0  0  0  0  0  0  0  0
    1.2840   -7.5660   33.8540 C   0  0  0  0  0  0  0  0  0  0  0  0
    1.1030   -4.8930   32.0990 C   0  0  0  0  0  0  0  0  0  0  0  0
    1.7770   -3.7530   31.6430 C   0  0  0  0  0  0  0  0  0  0  0  0
    6.6600   -3.0450   28.6260 C   0  0  0  0  0  0  0  0  0  0  0  0
    6.4280   -2.5630   27.2480 C   0  0  0  0  0  0  0  0  0  0  0  0
    6.1670   -5.2300   23.7990 C   0  0  0  0  0  0  0  0  0  0  0  0
    6.6940   -5.5910   22.4240 C   0  0  0  0  0  0  0  0  0  0  0  0
  1  2  1  0
  2  3  2  0
  2  4  1  0
  4  5  1  0
  5  6  1  0
  6  7  1  0
  7  8  1  0
  8  9  2  0
  8 10  1  0
 10 11  1  0
 11 12  1  0
 12 13  1  0
 13 14  1  0
 14 15  1  0
 15 16  1  0
 16 17  2  0
 17 18  1  0
 18 19  2  0
 19 20  1  0
 20 21  1  0
 19 22  1  0
 16 23  1  0
 22 23  2  0
 13 24  1  0
 10 25  1  0
 24 25  1  0
  7 26  1  0
  4 27  1  0
 26 27  1  0
M  END
