piperidine-amides-14208-covalent
     RDKit          3D

 24 26  0  0  0  0  0  0  0  0999 V2000
    7.0670   -3.3450   19.3330 C   0  0  0  0  0  0  0  0  0  0  0  0
    6.3420   -4.1670   20.3340 C   0  0  0  0  0  0  0  0  0  0  0  0
    5.3550   -4.8320   19.9740 O   0  0  0  0  0  0  0  0  0  0  0  0
    6.8250   -4.2020   21.6570 N   0  0  0  0  0  0  0  0  0  0  0  0
    7.7000   -3.1620   22.1720 C   0  0  0  0  0  0  0  0  0  0  0  0
    7.4950   -3.0120   23.6820 C   0  0  0  0  0  0  0  0  0  0  0  0
    6.1590   -3.5700   24.0030 C   0  0  0  0  0  0  0  0  0  0  0  0
    5.7080   -3.2650   25.3770 C   0  0  0  0  0  0  0  0  0  0  0  0
    4.5520   -3.5930   25.6680 O   0  0  0  0  0  0  0  0  0  0  0  0
    6.5820   -2.6210   26.2580 N   0  0  0  0  0  0  0  0  0  0  0  0
    6.2730   -1.5860   27.1870 C   0  0  1  0  0  0  0  0  0  0  0  0
    7.0510   -1.4450   28.3100 C   0  0  0  0  0  0  0  0  0  0  0  0
    6.7180   -0.4920   29.2680 C   0  0  0  0  0  0  0  0  0  0  0  0
    6.2320    0.6870   28.7740 C   0  0  0  0  0  0  0  0  0  0  0  0
    5.8850    0.7660   27.3360 C   0  0  0  0  0  0  0  0  0  0  0  0
    5.4930    2.1210   26.7080 C   0  0  0  0  0  0  0  0  0  0  0  0
    5.1410    2.1740   25.2160 C   0  0  0  0  0  0  0  0  0  0  0  0
    4.7720    3.2880   24.4910 C   0  0  0  0  0  0  0  0  0  0  0  0
    3.5760    3.8940   24.5830 N   0  0  0  0  0  0  0  0  0  0  0  0
    5.2040    0.9000   24.4670 C   0  0  0  0  0  0  0  0  0  0  0  0
    5.6050   -0.3410   25.2340 C   0  0  0  0  0  0  0  0  0  0  0  0
    5.9150   -0.3810   26.5630 C   0  0  0  0  0  0  0  0  0  0  0  0
    6.0610   -5.0450   23.7800 C   0  0  0  0  0  0  0  0  0  0  0  0
    6.6630   -5.4120   22.4460 C   0  0  0  0  0  0  0  0  0  0  0  0
  1  2  1  0
  2  3  2  0
  2  4  1  0
  4  5  1  0
  5  6  1  0
  6  7  1  0
  7  8  1  0
  8  9  2  0
  8 10  1  0
 11 10  1  6
 11 12  1  0
 12 13  1  0
 13 14  1  0
 14 15  1  0
 15 16  2  0
 16 17  1  0
 17 18  1  0
 18 19  3  0
 17 20  2  0
 20 21  1  0
 11 22  1  0
 15 22  1  0
 21 22  2  0
  7 23  1  0
  4 24  1  0
 23 24  1  0
M  END
