piperidine-amides-14945-covalent
     RDKit          3D

 21 22  0  0  0  0  0  0  0  0999 V2000
    7.1000   -3.2760   19.2370 C   0  0  0  0  0  0  0  0  0  0  0  0
    6.3800   -4.0570   20.2430 C   0  0  0  0  0  0  0  0  0  0  0  0
    5.3160   -4.6000   19.9040 O   0  0  0  0  0  0  0  0  0  0  0  0
    6.9060   -4.2300   21.5470 N   0  0  0  0  0  0  0  0  0  0  0  0
    6.4560   -5.3810   22.2950 C   0  0  0  0  0  0  0  0  0  0  0  0
    6.3000   -5.0890   23.7720 C   0  0  0  0  0  0  0  0  0  0  0  0
    6.0730   -3.6040   23.9710 C   0  0  0  0  0  0  0  0  0  0  0  0
    5.5780   -3.2880   25.3490 C   0  0  0  0  0  0  0  0  0  0  0  0
    4.3680   -3.0910   25.4490 O   0  0  0  0  0  0  0  0  0  0  0  0
    6.4830   -3.2310   26.4030 N   0  0  0  0  0  0  0  0  0  0  0  0
    6.2220   -3.8190   27.6780 C   0  0  0  0  0  0  0  0  0  0  0  0
    5.9980   -5.2080   27.6810 C   0  0  0  0  0  0  0  0  0  0  0  0
    5.0270   -5.7290   28.5040 C   0  0  0  0  0  0  0  0  0  0  0  0
    4.1730   -4.8170   29.2350 N   0  0  0  0  0  0  0  0  0  0  0  0
    3.1820   -5.3790   30.0800 C   0  0  0  0  0  0  0  0  0  0  0  0
    2.9560   -6.8360   30.2690 C   0  0  0  0  0  0  0  0  0  0  0  0
    1.8390   -7.3030   31.2290 C   0  0  0  0  0  0  0  0  0  0  0  0
    3.7620   -7.6740   29.5750 C   0  0  0  0  0  0  0  0  0  0  0  0
    4.7640   -7.0380   28.7240 N   0  0  0  0  0  0  0  0  0  0  0  0
    7.2800   -2.8560   23.5580 C   0  0  0  0  0  0  0  0  0  0  0  0
    7.6940   -3.1640   22.1220 C   0  0  0  0  0  0  0  0  0  0  0  0
  1  2  1  0
  2  3  2  0
  2  4  1  0
  4  5  1  0
  5  6  1  0
  6  7  1  0
  7  8  1  0
  8  9  2  0
  8 10  1  0
 10 11  1  0
 11 12  1  0
 12 13  1  0
 13 14  2  0
 14 15  1  0
 15 16  2  0
 16 17  1  0
 16 18  1  0
 13 19  1  0
 18 19  2  0
  7 20  1  0
  4 21  1  0
 20 21  1  0
M  END
