piperidine-amides-13501-covalent
     RDKit          3D

 19 20  0  0  0  0  0  0  0  0999 V2000
    7.0730   -3.3340   19.3190 C   0  0  0  0  0  0  0  0  0  0  0  0
    6.3830   -4.1860   20.3240 C   0  0  0  0  0  0  0  0  0  0  0  0
    5.3750   -4.8300   19.9770 O   0  0  0  0  0  0  0  0  0  0  0  0
    6.9190   -4.2730   21.6270 N   0  0  0  0  0  0  0  0  0  0  0  0
    7.7700   -3.2450   22.1790 C   0  0  0  0  0  0  0  0  0  0  0  0
    6.9930   -2.6140   23.3260 C   0  0  0  0  0  0  0  0  0  0  0  0
    6.5420   -3.7390   24.1870 C   0  0  0  0  0  0  0  0  0  0  0  0
    5.7530   -3.2740   25.3560 C   0  0  0  0  0  0  0  0  0  0  0  0
    4.5260   -3.2260   25.2040 O   0  0  0  0  0  0  0  0  0  0  0  0
    6.3930   -2.9250   26.5510 N   0  0  0  0  0  0  0  0  0  0  0  0
    6.5590   -1.6350   27.1530 C   0  0  2  0  0  0  0  0  0  0  0  0
    6.7370   -1.6070   28.5230 C   0  0  0  0  0  0  0  0  0  0  0  0
    6.7610   -0.4210   29.2690 C   0  0  0  0  0  0  0  0  0  0  0  0
    6.2940    0.7370   28.6980 C   0  0  0  0  0  0  0  0  0  0  0  0
    5.7320    0.7120   27.3290 C   0  0  0  0  0  0  0  0  0  0  0  0
    5.6860   -0.6550   26.6360 C   0  0  1  0  0  0  0  0  0  0  0  0
    5.8720   -0.3760   25.2730 F   0  0  0  0  0  0  0  0  0  0  0  0
    5.7580   -4.8280   23.4990 C   0  0  0  0  0  0  0  0  0  0  0  0
    6.5260   -5.3580   22.4780 C   0  0  0  0  0  0  0  0  0  0  0  0
  1  2  1  0
  2  3  2  0
  2  4  1  0
  4  5  1  0
  5  6  1  0
  6  7  1  0
  7  8  1  0
  8  9  2  0
  8 10  1  0
 11 10  1  1
 11 12  1  0
 12 13  1  0
 13 14  1  0
 14 15  1  0
 11 16  1  0
 15 16  1  0
 16 17  1  6
  7 18  1  0
  4 19  1  0
 18 19  1  0
M  END
