piperidine-amides-19062-covalent
     RDKit          3D

 22 24  0  0  0  0  0  0  0  0999 V2000
    7.0400   -3.4070   19.3930 C   0  0  0  0  0  0  0  0  0  0  0  0
    6.3970   -4.2310   20.3920 C   0  0  0  0  0  0  0  0  0  0  0  0
    5.3880   -4.8990   20.0020 O   0  0  0  0  0  0  0  0  0  0  0  0
    6.8440   -4.3830   21.7320 N   0  0  0  0  0  0  0  0  0  0  0  0
    6.4890   -5.6300   22.4260 C   0  0  0  0  0  0  0  0  0  0  0  0
    5.4530   -5.0250   23.4430 C   0  0  0  0  0  0  0  0  0  0  0  0
    6.2400   -4.0330   24.2690 C   0  0  0  0  0  0  0  0  0  0  0  0
    5.3410   -3.4160   25.4490 C   0  0  0  0  0  0  0  0  0  0  0  0
    4.4080   -2.8180   24.9370 O   0  0  0  0  0  0  0  0  0  0  0  0
    5.7690   -3.6680   26.6440 N   0  0  0  0  0  0  0  0  0  0  0  0
    6.3940   -3.9790   27.7740 C   0  0  0  0  0  0  0  0  0  0  0  0
    6.8450   -5.0860   28.3860 C   0  0  0  0  0  0  0  0  0  0  0  0
    5.7920   -5.3560   29.1860 C   0  0  0  0  0  0  0  0  0  0  0  0
    5.7960   -6.4930   30.1530 C   0  0  0  0  0  0  0  0  0  0  0  0
    4.4450   -6.3390   30.7560 C   0  0  0  0  0  0  0  0  0  0  0  0
    4.0170   -7.2300   31.7470 C   0  0  0  0  0  0  0  0  0  0  0  0
    3.2160   -5.5350   30.7380 C   0  0  0  0  0  0  0  0  0  0  0  0
    3.3900   -4.4360   29.6980 C   0  0  0  0  0  0  0  0  0  0  0  0
    4.7280   -4.2800   28.8340 C   0  0  0  0  0  0  0  0  0  0  0  0
    4.9900   -3.2990   27.8420 C   0  0  0  0  0  0  0  0  0  0  0  0
    6.9590   -2.9350   23.4700 C   0  0  0  0  0  0  0  0  0  0  0  0
    7.6790   -3.4180   22.4160 C   0  0  0  0  0  0  0  0  0  0  0  0
  1  2  1  0
  2  3  2  0
  2  4  1  0
  4  5  1  0
  5  6  1  0
  6  7  1  0
  7  8  1  0
  8  9  2  0
  8 10  1  0
 10 11  1  0
 11 12  1  0
 12 13  1  0
 13 14  2  0
 14 15  1  0
 15 16  1  0
 15 17  2  0
 17 18  1  0
 13 19  1  0
 18 19  2  0
 10 20  1  0
 19 20  1  0
  7 21  1  0
  4 22  1  0
 21 22  1  0
M  END
