piperidine-amides-29717-covalent
     RDKit          3D

 27 30  0  0  0  0  0  0  0  0999 V2000
    7.0610   -3.3180   19.3440 C   0  0  0  0  0  0  0  0  0  0  0  0
    6.3810   -4.1700   20.3120 C   0  0  0  0  0  0  0  0  0  0  0  0
    5.3770   -4.7960   19.9720 O   0  0  0  0  0  0  0  0  0  0  0  0
    6.8990   -4.3340   21.6510 N   0  0  0  0  0  0  0  0  0  0  0  0
    7.6750   -3.2830   22.2900 C   0  0  0  0  0  0  0  0  0  0  0  0
    7.2260   -3.0670   23.7220 C   0  0  0  0  0  0  0  0  0  0  0  0
    5.9310   -3.8370   23.8720 C   0  0  0  0  0  0  0  0  0  0  0  0
    5.2160   -3.7450   25.1870 C   0  0  0  0  0  0  0  0  0  0  0  0
    4.4080   -4.6180   25.5100 O   0  0  0  0  0  0  0  0  0  0  0  0
    5.3770   -2.6880   26.1020 N   0  0  0  0  0  0  0  0  0  0  0  0
    4.1810   -2.3430   26.8230 C   0  0  0  0  0  0  0  0  0  0  0  0
    4.1690   -3.1790   28.0650 C   0  0  0  0  0  0  0  0  0  0  0  0
    5.2460   -3.2570   28.7950 N   0  0  0  0  0  0  0  0  0  0  0  0
    5.0110   -4.0320   29.8280 C   0  0  0  0  0  0  0  0  0  0  0  0
    4.3670   -5.2590   29.8650 C   0  0  0  0  0  0  0  0  0  0  0  0
    4.9510   -6.4490   29.3500 C   0  0  0  0  0  0  0  0  0  0  0  0
    4.2030   -7.7260   29.4330 C   0  0  0  0  0  0  0  0  0  0  0  0
    2.9600   -7.7630   30.0000 C   0  0  0  0  0  0  0  0  0  0  0  0
    2.5980   -6.6440   30.3960 C   0  0  0  0  0  0  0  0  0  0  0  0
    3.1030   -5.3910   30.4210 C   0  0  0  0  0  0  0  0  0  0  0  0
    1.3660   -6.4370   31.0060 C   0  0  0  0  0  0  0  0  0  0  0  0
    0.9920   -7.8140   30.8990 C   0  0  0  0  0  0  0  0  0  0  0  0
    2.0090   -8.6370   30.2580 O   0  0  0  0  0  0  0  0  0  0  0  0
    6.3520   -3.5240   27.9710 C   0  0  0  0  0  0  0  0  0  0  0  0
    6.6180   -2.7340   26.7160 C   0  0  0  0  0  0  0  0  0  0  0  0
    6.1000   -5.3040   23.6540 C   0  0  0  0  0  0  0  0  0  0  0  0
    6.7220   -5.5910   22.3100 C   0  0  0  0  0  0  0  0  0  0  0  0
  1  2  1  0
  2  3  2  0
  2  4  1  0
  4  5  1  0
  5  6  1  0
  6  7  1  0
  7  8  1  0
  8  9  2  0
  8 10  1  0
 10 11  1  0
 11 12  1  0
 12 13  1  0
 13 14  1  0
 14 15  1  0
 15 16  2  0
 16 17  1  0
 17 18  2  0
 18 19  1  0
 15 20  1  0
 19 20  2  0
 19 21  1  0
 21 22  1  0
 18 23  1  0
 22 23  1  0
 13 24  1  0
 10 25  1  0
 24 25  1  0
  7 26  1  0
  4 27  1  0
 26 27  1  0
M  END
