piperidine-amides-11236-covalent
     RDKit          3D

 19 20  0  0  0  0  0  0  0  0999 V2000
    7.0580   -3.3280   19.3250 C   0  0  0  0  0  0  0  0  0  0  0  0
    6.3640   -4.1290   20.3340 C   0  0  0  0  0  0  0  0  0  0  0  0
    5.3920   -4.8200   19.9820 O   0  0  0  0  0  0  0  0  0  0  0  0
    6.8060   -4.1630   21.6710 N   0  0  0  0  0  0  0  0  0  0  0  0
    7.7380   -3.1740   22.2000 C   0  0  0  0  0  0  0  0  0  0  0  0
    7.4840   -3.0590   23.6790 C   0  0  0  0  0  0  0  0  0  0  0  0
    6.1680   -3.6650   24.0270 C   0  0  0  0  0  0  0  0  0  0  0  0
    5.7200   -3.4170   25.4140 C   0  0  0  0  0  0  0  0  0  0  0  0
    4.6090   -3.8960   25.7870 O   0  0  0  0  0  0  0  0  0  0  0  0
    6.4050   -2.6460   26.3770 N   0  0  0  0  0  0  0  0  0  0  0  0
    5.5500   -1.7460   27.1770 C   0  0  0  0  0  0  0  0  0  0  0  0
    6.0570   -1.3440   28.3420 C   0  0  0  0  0  0  0  0  0  0  0  0
    5.2570   -1.2010   29.5750 C   0  0  0  0  0  0  0  0  0  0  0  0
    7.5100   -1.2670   28.6350 C   0  0  0  0  0  0  0  0  0  0  0  0
    5.6160   -0.2590   27.3450 C   0  0  0  0  0  0  0  0  0  0  0  0
    4.2860    0.3790   27.5230 C   0  0  0  0  0  0  0  0  0  0  0  0
    6.1830    0.2320   26.0120 C   0  0  0  0  0  0  0  0  0  0  0  0
    6.1650   -5.1480   23.7690 C   0  0  0  0  0  0  0  0  0  0  0  0
    6.7130   -5.4270   22.3850 C   0  0  0  0  0  0  0  0  0  0  0  0
  1  2  1  0
  2  3  2  0
  2  4  1  0
  4  5  1  0
  5  6  1  0
  6  7  1  0
  7  8  1  0
  8  9  2  0
  8 10  1  0
 10 11  1  0
 11 12  1  0
 12 13  1  0
 12 14  1  0
 11 15  1  0
 12 15  1  0
 15 16  1  0
 15 17  1  0
  7 18  1  0
  4 19  1  0
 18 19  1  0
M  END
