piperidine-amides-29182-covalent
     RDKit          3D

 26 27  0  0  0  0  0  0  0  0999 V2000
    7.0740   -3.3470   19.3130 C   0  0  0  0  0  0  0  0  0  0  0  0
    6.4300   -4.1950   20.3120 C   0  0  0  0  0  0  0  0  0  0  0  0
    5.3900   -4.7920   19.9760 O   0  0  0  0  0  0  0  0  0  0  0  0
    7.0180   -4.3750   21.5950 N   0  0  0  0  0  0  0  0  0  0  0  0
    7.7130   -3.2770   22.2000 C   0  0  0  0  0  0  0  0  0  0  0  0
    6.8780   -2.7400   23.3190 C   0  0  0  0  0  0  0  0  0  0  0  0
    6.6680   -3.8530   24.3300 C   0  0  0  0  0  0  0  0  0  0  0  0
    5.8520   -3.3050   25.4630 C   0  0  0  0  0  0  0  0  0  0  0  0
    4.6680   -3.0800   25.2080 O   0  0  0  0  0  0  0  0  0  0  0  0
    6.4580   -3.0830   26.6980 N   0  0  0  0  0  0  0  0  0  0  0  0
    6.5630   -4.1480   27.6480 C   0  0  0  0  0  0  0  0  0  0  0  0
    6.9430   -5.4050   27.1810 C   0  0  0  0  0  0  0  0  0  0  0  0
    6.0170   -6.4020   27.3730 C   0  0  0  0  0  0  0  0  0  0  0  0
    4.7180   -6.1670   26.8360 N   0  0  0  0  0  0  0  0  0  0  0  0
    6.4080   -1.7010   27.1680 C   0  0  0  0  0  0  0  0  0  0  0  0
    6.9930   -1.6200   28.5490 C   0  0  0  0  0  0  0  0  0  0  0  0
    7.0410   -0.2600   29.2650 C   0  0  0  0  0  0  0  0  0  0  0  0
    6.5110    0.9360   28.5800 C   0  0  0  0  0  0  0  0  0  0  0  0
    5.9600    0.7250   27.2110 C   0  0  0  0  0  0  0  0  0  0  0  0
    5.3900    1.9430   26.4370 C   0  0  0  0  0  0  0  0  0  0  0  0
    5.7050    2.1140   25.1090 F   0  0  0  0  0  0  0  0  0  0  0  0
    5.8390    3.1050   27.0730 F   0  0  0  0  0  0  0  0  0  0  0  0
    4.0390    1.8680   26.4850 F   0  0  0  0  0  0  0  0  0  0  0  0
    5.9300   -0.5050   26.5940 C   0  0  0  0  0  0  0  0  0  0  0  0
    5.8730   -4.9430   23.6610 C   0  0  0  0  0  0  0  0  0  0  0  0
    6.4930   -5.4520   22.3870 C   0  0  0  0  0  0  0  0  0  0  0  0
  1  2  1  0
  2  3  2  0
  2  4  1  0
  4  5  1  0
  5  6  1  0
  6  7  1  0
  7  8  1  0
  8  9  2  0
  8 10  1  0
 10 11  1  0
 11 12  1  0
 12 13  1  0
 13 14  3  0
 10 15  1  0
 15 16  2  0
 16 17  1  0
 17 18  2  0
 18 19  1  0
 19 20  1  0
 20 21  1  0
 20 22  1  0
 20 23  1  0
 15 24  1  0
 19 24  2  0
  7 25  1  0
  4 26  1  0
 25 26  1  0
M  END
