piperidine-amides-12211-covalent
     RDKit          3D

 24 25  0  0  0  0  0  0  0  0999 V2000
    7.1060   -3.2860   19.2770 C   0  0  0  0  0  0  0  0  0  0  0  0
    6.3850   -4.0870   20.2640 C   0  0  0  0  0  0  0  0  0  0  0  0
    5.3500   -4.6720   19.9390 O   0  0  0  0  0  0  0  0  0  0  0  0
    6.9000   -4.2380   21.5990 N   0  0  0  0  0  0  0  0  0  0  0  0
    6.5770   -5.4330   22.3480 C   0  0  0  0  0  0  0  0  0  0  0  0
    6.1140   -5.1260   23.7580 C   0  0  0  0  0  0  0  0  0  0  0  0
    6.0700   -3.6190   23.9660 C   0  0  0  0  0  0  0  0  0  0  0  0
    5.5530   -3.2800   25.3230 C   0  0  0  0  0  0  0  0  0  0  0  0
    4.3340   -3.1840   25.5380 O   0  0  0  0  0  0  0  0  0  0  0  0
    6.4520   -3.0520   26.3930 N   0  0  0  0  0  0  0  0  0  0  0  0
    6.2850   -3.7960   27.6330 C   0  0  0  0  0  0  0  0  0  0  0  0
    4.8540   -3.6550   28.0960 C   0  0  0  0  0  0  0  0  0  0  0  0
    4.4970   -2.6610   29.0140 C   0  0  0  0  0  0  0  0  0  0  0  0
    3.1740   -2.4930   29.4770 C   0  0  0  0  0  0  0  0  0  0  0  0
    2.9280   -1.4580   30.4000 O   0  0  0  0  0  0  0  0  0  0  0  0
    2.7560   -0.1230   29.9590 C   0  0  0  0  0  0  0  0  0  0  0  0
    2.3240    0.7400   31.0520 C   0  0  0  0  0  0  0  0  0  0  0  0
    3.3930    1.4480   31.5240 F   0  0  0  0  0  0  0  0  0  0  0  0
    1.6810    0.0090   32.0310 F   0  0  0  0  0  0  0  0  0  0  0  0
    2.1910   -3.3120   29.0330 C   0  0  0  0  0  0  0  0  0  0  0  0
    2.5150   -4.2890   28.1390 C   0  0  0  0  0  0  0  0  0  0  0  0
    3.8300   -4.4450   27.6870 N   0  0  0  0  0  0  0  0  0  0  0  0
    7.2900   -2.8980   23.5600 C   0  0  0  0  0  0  0  0  0  0  0  0
    7.6540   -3.1700   22.1790 C   0  0  0  0  0  0  0  0  0  0  0  0
  1  2  1  0
  2  3  2  0
  2  4  1  0
  4  5  1  0
  5  6  1  0
  6  7  1  0
  7  8  1  0
  8  9  2  0
  8 10  1  0
 10 11  1  0
 11 12  1  0
 12 13  2  0
 13 14  1  0
 14 15  1  0
 15 16  1  0
 16 17  1  0
 17 18  1  0
 17 19  1  0
 14 20  2  0
 20 21  1  0
 12 22  1  0
 21 22  2  0
  7 23  1  0
  4 24  1  0
 23 24  1  0
M  END
