piperidine-amides-11395-covalent
     RDKit          3D

 20 22  0  0  0  0  0  0  0  0999 V2000
    7.0640   -3.3260   19.2780 C   0  0  0  0  0  0  0  0  0  0  0  0
    6.3670   -4.1330   20.2800 C   0  0  0  0  0  0  0  0  0  0  0  0
    5.3460   -4.7580   19.9550 O   0  0  0  0  0  0  0  0  0  0  0  0
    6.8650   -4.2530   21.5840 N   0  0  0  0  0  0  0  0  0  0  0  0
    7.6830   -3.2390   22.2100 C   0  0  0  0  0  0  0  0  0  0  0  0
    6.8650   -2.7230   23.3560 C   0  0  0  0  0  0  0  0  0  0  0  0
    6.5070   -3.8370   24.2800 C   0  0  0  0  0  0  0  0  0  0  0  0
    5.7650   -3.3580   25.4790 C   0  0  0  0  0  0  0  0  0  0  0  0
    4.4900   -3.3200   25.5050 O   0  0  0  0  0  0  0  0  0  0  0  0
    6.4380   -2.9270   26.6440 N   0  0  0  0  0  0  0  0  0  0  0  0
    6.0740   -1.6890   27.3840 C   0  0  1  0  0  0  0  0  0  0  0  0
    7.0730   -1.3700   28.4150 C   0  0  0  0  0  0  0  0  0  0  0  0
    6.6590   -0.2660   29.2880 C   0  0  0  0  0  0  0  0  0  0  0  0
    6.2660    0.9220   28.4400 C   0  0  0  0  0  0  0  0  0  0  0  0
    5.2030    0.4420   27.4690 C   0  0  1  0  0  0  0  0  0  0  0  0
    5.8790   -0.4960   26.5610 C   0  0  0  0  0  0  0  0  0  0  0  0
    4.3210   -0.4090   28.1810 O   0  0  0  0  0  0  0  0  0  0  0  0
    4.6790   -1.7700   28.0730 C   0  0  0  0  0  0  0  0  0  0  0  0
    5.7370   -4.9280   23.5740 C   0  0  0  0  0  0  0  0  0  0  0  0
    6.5330   -5.4140   22.3820 C   0  0  0  0  0  0  0  0  0  0  0  0
  1  2  1  0
  2  3  2  0
  2  4  1  0
  4  5  1  0
  5  6  1  0
  6  7  1  0
  7  8  1  0
  8  9  2  0
  8 10  1  0
 11 10  1  6
 11 12  1  0
 12 13  1  0
 13 14  1  0
 15 14  1  1
 11 16  1  0
 15 16  1  0
 15 17  1  0
 11 18  1  0
 17 18  1  0
  7 19  1  0
  4 20  1  0
 19 20  1  0
M  END
