piperidine-amides-12182-covalent
     RDKit          3D

 25 26  0  0  0  0  0  0  0  0999 V2000
    7.0840   -3.2960   19.2270 C   0  0  0  0  0  0  0  0  0  0  0  0
    6.3460   -4.0540   20.2370 C   0  0  0  0  0  0  0  0  0  0  0  0
    5.3090   -4.6350   19.9200 O   0  0  0  0  0  0  0  0  0  0  0  0
    6.8470   -4.1660   21.5850 N   0  0  0  0  0  0  0  0  0  0  0  0
    7.7000   -3.1340   22.1320 C   0  0  0  0  0  0  0  0  0  0  0  0
    7.4370   -2.9610   23.6010 C   0  0  0  0  0  0  0  0  0  0  0  0
    6.0830   -3.5790   23.8870 C   0  0  0  0  0  0  0  0  0  0  0  0
    5.6040   -3.2640   25.2590 C   0  0  0  0  0  0  0  0  0  0  0  0
    4.3960   -3.2820   25.5560 O   0  0  0  0  0  0  0  0  0  0  0  0
    6.5470   -2.9390   26.2540 N   0  0  0  0  0  0  0  0  0  0  0  0
    6.5760   -1.5950   26.7680 C   0  0  0  0  0  0  0  0  0  0  0  0
    5.7600   -1.5930   28.0310 C   0  0  0  0  0  0  0  0  0  0  0  0
    4.9000   -2.6290   28.3570 C   0  0  0  0  0  0  0  0  0  0  0  0
    4.1460   -2.6030   29.5430 C   0  0  0  0  0  0  0  0  0  0  0  0
    4.2260   -1.5510   30.4340 C   0  0  0  0  0  0  0  0  0  0  0  0
    3.4520   -1.5430   31.6300 N   0  0  0  0  0  0  0  0  0  0  0  0
    3.3210   -0.3630   32.4340 C   0  0  0  0  0  0  0  0  0  0  0  0
    3.5240    0.8440   32.0880 O   0  0  0  0  0  0  0  0  0  0  0  0
    2.9220   -0.5900   33.7310 C   0  0  0  0  0  0  0  0  0  0  0  0
    2.2600    0.3810   34.4560 C   0  0  0  0  0  0  0  0  0  0  0  0
    1.7450    0.0860   35.7180 C   0  0  0  0  0  0  0  0  0  0  0  0
    5.0960   -0.5530   30.0610 C   0  0  0  0  0  0  0  0  0  0  0  0
    5.8500   -0.5440   28.9080 C   0  0  0  0  0  0  0  0  0  0  0  0
    6.1210   -5.0670   23.6880 C   0  0  0  0  0  0  0  0  0  0  0  0
    6.5760   -5.3680   22.2980 C   0  0  0  0  0  0  0  0  0  0  0  0
  1  2  1  0
  2  3  2  0
  2  4  1  0
  4  5  1  0
  5  6  1  0
  6  7  1  0
  7  8  1  0
  8  9  2  0
  8 10  1  0
 10 11  1  0
 11 12  1  0
 12 13  2  0
 13 14  1  0
 14 15  2  0
 15 16  1  0
 16 17  1  0
 17 18  2  0
 17 19  1  0
 19 20  1  0
 20 21  1  0
 15 22  1  0
 12 23  1  0
 22 23  2  0
  7 24  1  0
  4 25  1  0
 24 25  1  0
M  END
