piperidine-amides-24032-covalent
     RDKit          3D

 23 25  0  0  0  0  0  0  0  0999 V2000
    7.1190   -3.3320   19.2340 C   0  0  0  0  0  0  0  0  0  0  0  0
    6.4290   -4.1310   20.2560 C   0  0  0  0  0  0  0  0  0  0  0  0
    5.3340   -4.6460   19.9290 O   0  0  0  0  0  0  0  0  0  0  0  0
    7.0260   -4.3680   21.5160 N   0  0  0  0  0  0  0  0  0  0  0  0
    7.6860   -3.2740   22.1390 C   0  0  0  0  0  0  0  0  0  0  0  0
    7.2290   -2.9400   23.4810 C   0  0  0  0  0  0  0  0  0  0  0  0
    6.3770   -3.9290   24.1790 C   0  0  0  0  0  0  0  0  0  0  0  0
    5.5530   -3.2560   25.2220 C   0  0  0  0  0  0  0  0  0  0  0  0
    4.4550   -2.7650   24.9120 O   0  0  0  0  0  0  0  0  0  0  0  0
    5.9860   -3.1770   26.5450 N   0  0  0  0  0  0  0  0  0  0  0  0
    6.1960   -1.9520   27.2550 C   0  0  0  0  0  0  0  0  0  0  0  0
    5.7670   -0.6850   26.6940 C   0  0  0  0  0  0  0  0  0  0  0  0
    5.9650    0.6800   27.4390 C   0  0  0  0  0  0  0  0  0  0  0  0
    6.5930    0.6340   28.7060 C   0  0  0  0  0  0  0  0  0  0  0  0
    7.0010   -0.7760   29.1760 C   0  0  0  0  0  0  0  0  0  0  0  0
    6.7670   -1.9330   28.4180 N   0  0  0  0  0  0  0  0  0  0  0  0
    5.9570   -4.3650   27.3670 C   0  0  2  0  0  0  0  0  0  0  0  0
    4.4970   -4.7820   27.7070 C   0  0  0  0  0  0  0  0  0  0  0  0
    4.4970   -6.0730   28.4600 C   0  0  0  0  0  0  0  0  0  0  0  0
    6.0730   -6.1860   29.1910 S   0  0  0  0  0  0  0  0  0  0  0  0
    6.5130   -4.4900   28.7680 C   0  0  0  0  0  0  0  0  0  0  0  0
    5.4740   -4.7510   23.2500 C   0  0  0  0  0  0  0  0  0  0  0  0
    6.4020   -5.4220   22.3150 C   0  0  0  0  0  0  0  0  0  0  0  0
  1  2  1  0
  2  3  2  0
  2  4  1  0
  4  5  1  0
  5  6  1  0
  6  7  1  0
  7  8  1  0
  8  9  2  0
  8 10  1  0
 10 11  1  0
 11 12  2  0
 12 13  1  0
 13 14  2  0
 14 15  1  0
 11 16  1  0
 15 16  2  0
 17 10  1  1
 17 18  1  0
 18 19  1  0
 19 20  1  0
 17 21  1  0
 20 21  1  0
  7 22  1  0
  4 23  1  0
 22 23  1  0
M  END
