piperidine-amides-24295-covalent
     RDKit          3D

 24 25  0  0  0  0  0  0  0  0999 V2000
    7.2120   -4.0220   19.6910 C   0  0  0  0  0  0  0  0  0  0  0  0
    6.0100   -3.9770   20.3960 C   0  0  0  0  0  0  0  0  0  0  0  0
    4.9830   -4.1430   19.7150 O   0  0  0  0  0  0  0  0  0  0  0  0
    6.0980   -3.8790   21.7730 N   0  0  0  0  0  0  0  0  0  0  0  0
    7.1650   -2.9820   22.1880 C   0  0  0  0  0  0  0  0  0  0  0  0
    7.1890   -3.0410   23.7020 C   0  0  0  0  0  0  0  0  0  0  0  0
    5.8090   -3.4810   24.0620 C   0  0  0  0  0  0  0  0  0  0  0  0
    5.4580   -3.2100   25.4700 C   0  0  0  0  0  0  0  0  0  0  0  0
    4.2450   -3.1360   25.7520 O   0  0  0  0  0  0  0  0  0  0  0  0
    6.4470   -3.0160   26.4650 N   0  0  0  0  0  0  0  0  0  0  0  0
    6.7510   -1.6480   26.7910 C   0  0  0  0  0  0  0  0  0  0  0  0
    6.4800   -3.9740   27.5660 C   0  0  0  0  0  0  0  0  0  0  0  0
    6.9500   -5.1620   27.0610 C   0  0  0  0  0  0  0  0  0  0  0  0
    7.3740   -5.2880   25.8770 O   0  0  0  0  0  0  0  0  0  0  0  0
    6.9150   -6.2550   27.9510 N   0  0  0  0  0  0  0  0  0  0  0  0
    5.7640   -6.4490   28.7260 C   0  0  0  0  0  0  0  0  0  0  0  0
    4.6220   -5.8970   28.2160 C   0  0  0  0  0  0  0  0  0  0  0  0
    3.3860   -5.9850   28.8370 C   0  0  0  0  0  0  0  0  0  0  0  0
    2.8900   -6.6450   30.1500 C   0  0  0  0  0  0  0  0  0  0  0  0
    1.6700   -6.7240   30.7470 F   0  0  0  0  0  0  0  0  0  0  0  0
    4.2710   -7.1810   30.5360 C   0  0  0  0  0  0  0  0  0  0  0  0
    5.6010   -7.0930   29.8810 C   0  0  0  0  0  0  0  0  0  0  0  0
    5.6090   -4.9410   23.7450 C   0  0  0  0  0  0  0  0  0  0  0  0
    6.1100   -5.1620   22.4580 C   0  0  0  0  0  0  0  0  0  0  0  0
  1  2  1  0
  2  3  2  0
  2  4  1  0
  4  5  1  0
  5  6  1  0
  6  7  1  0
  7  8  1  0
  8  9  2  0
  8 10  1  0
 10 11  1  0
 10 12  1  0
 12 13  1  0
 13 14  2  0
 13 15  1  0
 15 16  1  0
 16 17  2  0
 17 18  1  0
 18 19  2  0
 19 20  1  0
 19 21  1  0
 16 22  1  0
 21 22  2  0
  7 23  1  0
  4 24  1  0
 23 24  1  0
M  END
