piperidine-amides-6662-covalent
     RDKit          3D

 24 26  0  0  0  0  0  0  0  0999 V2000
    7.0840   -3.3320   19.3270 C   0  0  0  0  0  0  0  0  0  0  0  0
    6.4010   -4.2060   20.2980 C   0  0  0  0  0  0  0  0  0  0  0  0
    5.3690   -4.8270   19.9680 O   0  0  0  0  0  0  0  0  0  0  0  0
    6.9180   -4.3980   21.5830 N   0  0  0  0  0  0  0  0  0  0  0  0
    7.7330   -3.3450   22.1480 C   0  0  0  0  0  0  0  0  0  0  0  0
    6.8660   -2.7090   23.2140 C   0  0  0  0  0  0  0  0  0  0  0  0
    6.5780   -3.8230   24.1840 C   0  0  0  0  0  0  0  0  0  0  0  0
    5.9720   -3.2040   25.3640 C   0  0  0  0  0  0  0  0  0  0  0  0
    4.7570   -3.3400   25.6290 O   0  0  0  0  0  0  0  0  0  0  0  0
    6.8930   -2.4590   26.1190 N   0  0  0  0  0  0  0  0  0  0  0  0
    6.5480   -1.3500   26.9450 C   0  0  0  0  0  0  0  0  0  0  0  0
    7.0040   -1.4830   28.3750 C   0  0  0  0  0  0  0  0  0  0  0  0
    6.7730   -0.4990   29.2900 C   0  0  0  0  0  0  0  0  0  0  0  0
    6.1050    0.6570   28.9290 C   0  0  0  0  0  0  0  0  0  0  0  0
    5.9280    1.6000   29.9810 N   0  0  0  0  0  0  0  0  0  0  0  0
    6.9310    2.0360   30.8410 C   0  0  0  0  0  0  0  0  0  0  0  0
    7.3440    3.3010   30.4670 C   0  0  0  0  0  0  0  0  0  0  0  0
    5.9530    4.3540   30.1630 S   0  0  0  0  0  0  0  0  0  0  0  0
    4.4640    3.4060   30.3230 C   0  0  0  0  0  0  0  0  0  0  0  0
    4.6670    1.9310   30.5720 C   0  0  0  0  0  0  0  0  0  0  0  0
    5.6800    0.7860   27.6220 C   0  0  0  0  0  0  0  0  0  0  0  0
    5.8850   -0.2150   26.5790 C   0  0  0  0  0  0  0  0  0  0  0  0
    5.6890   -4.8410   23.5370 C   0  0  0  0  0  0  0  0  0  0  0  0
    6.2760   -5.3650   22.4150 C   0  0  0  0  0  0  0  0  0  0  0  0
  1  2  1  0
  2  3  2  0
  2  4  1  0
  4  5  1  0
  5  6  1  0
  6  7  1  0
  7  8  1  0
  8  9  2  0
  8 10  1  0
 10 11  1  0
 11 12  2  0
 12 13  1  0
 13 14  2  0
 14 15  1  0
 15 16  1  0
 16 17  1  0
 17 18  1  0
 18 19  1  0
 15 20  1  0
 19 20  1  0
 14 21  1  0
 11 22  1  0
 21 22  2  0
  7 23  1  0
  4 24  1  0
 23 24  1  0
M  END
