piperidine-amides-32715-covalent
     RDKit          3D

 21 22  0  0  0  0  0  0  0  0999 V2000
    7.1190   -3.2980   19.2400 C   0  0  0  0  0  0  0  0  0  0  0  0
    6.3350   -4.0570   20.2510 C   0  0  0  0  0  0  0  0  0  0  0  0
    5.2790   -4.6090   19.9060 O   0  0  0  0  0  0  0  0  0  0  0  0
    6.8470   -4.1700   21.5590 N   0  0  0  0  0  0  0  0  0  0  0  0
    7.6480   -3.1480   22.1880 C   0  0  0  0  0  0  0  0  0  0  0  0
    6.8100   -2.5800   23.3330 C   0  0  0  0  0  0  0  0  0  0  0  0
    6.4890   -3.7240   24.2310 C   0  0  0  0  0  0  0  0  0  0  0  0
    5.7150   -3.3290   25.4380 C   0  0  0  0  0  0  0  0  0  0  0  0
    4.4870   -3.2910   25.2900 O   0  0  0  0  0  0  0  0  0  0  0  0
    6.3330   -3.0150   26.6620 N   0  0  0  0  0  0  0  0  0  0  0  0
    6.3110   -3.8700   27.8010 C   0  0  0  0  0  0  0  0  0  0  0  0
    6.5930   -1.6460   26.9580 C   0  0  0  0  0  0  0  0  0  0  0  0
    6.4050   -1.1910   28.2730 C   0  0  0  0  0  0  0  0  0  0  0  0
    5.1670   -0.8190   28.7320 C   0  0  0  0  0  0  0  0  0  0  0  0
    4.9120   -0.3240   30.1010 C   0  0  0  0  0  0  0  0  0  0  0  0
    6.0300   -0.1840   31.1310 C   0  0  0  0  0  0  0  0  0  0  0  0
    5.7810    0.5200   33.1130 I   0  0  0  0  0  0  0  0  0  0  0  0
    7.3290   -0.6400   30.4610 C   0  0  0  0  0  0  0  0  0  0  0  0
    7.4620   -1.0930   29.1560 C   0  0  0  0  0  0  0  0  0  0  0  0
    5.7640   -4.8480   23.5630 C   0  0  0  0  0  0  0  0  0  0  0  0
    6.5130   -5.3360   22.3380 C   0  0  0  0  0  0  0  0  0  0  0  0
  1  2  1  0
  2  3  2  0
  2  4  1  0
  4  5  1  0
  5  6  1  0
  6  7  1  0
  7  8  1  0
  8  9  2  0
  8 10  1  0
 10 11  1  0
 10 12  1  0
 12 13  1  0
 13 14  2  0
 14 15  1  0
 15 16  2  0
 16 17  1  0
 16 18  1  0
 13 19  1  0
 18 19  2  0
  7 20  1  0
  4 21  1  0
 20 21  1  0
M  END
