piperidine-amides-12221-covalent
     RDKit          3D

 25 26  0  0  0  0  0  0  0  0999 V2000
    7.0770   -3.2880   19.2970 C   0  0  0  0  0  0  0  0  0  0  0  0
    6.3540   -4.0950   20.2740 C   0  0  0  0  0  0  0  0  0  0  0  0
    5.3310   -4.6900   19.9370 O   0  0  0  0  0  0  0  0  0  0  0  0
    6.8530   -4.2490   21.6160 N   0  0  0  0  0  0  0  0  0  0  0  0
    6.5480   -5.4380   22.3520 C   0  0  0  0  0  0  0  0  0  0  0  0
    5.8070   -5.0750   23.6080 C   0  0  0  0  0  0  0  0  0  0  0  0
    6.4920   -3.8820   24.2700 C   0  0  0  0  0  0  0  0  0  0  0  0
    5.6530   -3.4190   25.4240 C   0  0  0  0  0  0  0  0  0  0  0  0
    4.4290   -3.2320   25.2950 O   0  0  0  0  0  0  0  0  0  0  0  0
    6.2370   -3.1710   26.7050 N   0  0  0  0  0  0  0  0  0  0  0  0
    6.2040   -4.1940   27.7480 C   0  0  2  0  0  0  0  0  0  0  0  0
    5.9510   -5.5620   27.1560 C   0  0  0  0  0  0  0  0  0  0  0  0
    5.1630   -3.9910   28.7710 C   0  0  0  0  0  0  0  0  0  0  0  0
    4.8770   -5.1260   29.5800 C   0  0  0  0  0  0  0  0  0  0  0  0
    3.9360   -5.1780   30.6140 C   0  0  0  0  0  0  0  0  0  0  0  0
    3.8030   -6.2400   31.2360 O   0  0  0  0  0  0  0  0  0  0  0  0
    4.5830   -7.3810   31.1830 C   0  0  0  0  0  0  0  0  0  0  0  0
    3.1710   -4.0990   30.9570 C   0  0  0  0  0  0  0  0  0  0  0  0
    2.2490   -4.1880   31.9900 O   0  0  0  0  0  0  0  0  0  0  0  0
    2.6390   -3.6900   33.2500 C   0  0  0  0  0  0  0  0  0  0  0  0
    3.3950   -2.8570   30.1660 C   0  0  0  0  0  0  0  0  0  0  0  0
    4.3930   -2.9170   29.1230 C   0  0  0  0  0  0  0  0  0  0  0  0
    4.4920   -1.7130   28.4880 F   0  0  0  0  0  0  0  0  0  0  0  0
    6.7820   -2.7450   23.2970 C   0  0  0  0  0  0  0  0  0  0  0  0
    7.6020   -3.2140   22.2730 C   0  0  0  0  0  0  0  0  0  0  0  0
  1  2  1  0
  2  3  2  0
  2  4  1  0
  4  5  1  0
  5  6  1  0
  6  7  1  0
  7  8  1  0
  8  9  2  0
  8 10  1  0
 10 11  1  0
 11 12  1  6
 11 13  1  0
 13 14  2  0
 14 15  1  0
 15 16  1  0
 16 17  1  0
 15 18  2  0
 18 19  1  0
 19 20  1  0
 18 21  1  0
 13 22  1  0
 21 22  2  0
 22 23  1  0
  7 24  1  0
  4 25  1  0
 24 25  1  0
M  END
