piperidine-amides-7124-covalent
     RDKit          3D

 22 23  0  0  0  0  0  0  0  0999 V2000
    7.0750   -3.2670   19.2630 C   0  0  0  0  0  0  0  0  0  0  0  0
    6.3370   -4.0690   20.2550 C   0  0  0  0  0  0  0  0  0  0  0  0
    5.3070   -4.6930   19.9290 O   0  0  0  0  0  0  0  0  0  0  0  0
    6.8050   -4.1810   21.5680 N   0  0  0  0  0  0  0  0  0  0  0  0
    6.5760   -5.4000   22.3100 C   0  0  0  0  0  0  0  0  0  0  0  0
    5.5700   -5.0350   23.4000 C   0  0  0  0  0  0  0  0  0  0  0  0
    5.7040   -3.5370   23.6040 C   0  0  0  0  0  0  0  0  0  0  0  0
    5.0540   -3.1020   24.8630 C   0  0  0  0  0  0  0  0  0  0  0  0
    3.8180   -2.9550   24.8620 O   0  0  0  0  0  0  0  0  0  0  0  0
    5.7900   -2.8550   26.0390 N   0  0  0  0  0  0  0  0  0  0  0  0
    5.7510   -3.7890   27.1220 C   0  0  0  0  0  0  0  0  0  0  0  0
    4.4780   -4.5780   27.1560 C   0  0  0  0  0  0  0  0  0  0  0  0
    5.9880   -3.0260   28.3630 C   0  0  0  0  0  0  0  0  0  0  0  0
    6.7940   -4.6630   27.0030 C   0  0  0  0  0  0  0  0  0  0  0  0
    7.2950   -4.9120   25.7960 C   0  0  0  0  0  0  0  0  0  0  0  0
    8.3390   -5.7250   25.6410 C   0  0  0  0  0  0  0  0  0  0  0  0
    9.2160   -6.5330   26.5940 C   0  0  0  0  0  0  0  0  0  0  0  0
    8.4700   -6.1320   27.8570 C   0  0  0  0  0  0  0  0  0  0  0  0
    7.3370   -5.2590   28.0120 C   0  0  0  0  0  0  0  0  0  0  0  0
    6.8210   -5.0330   29.2230 F   0  0  0  0  0  0  0  0  0  0  0  0
    7.1510   -3.1220   23.5360 C   0  0  0  0  0  0  0  0  0  0  0  0
    7.5450   -3.1080   22.1920 C   0  0  0  0  0  0  0  0  0  0  0  0
  1  2  1  0
  2  3  2  0
  2  4  1  0
  4  5  1  0
  5  6  1  0
  6  7  1  0
  7  8  1  0
  8  9  2  0
  8 10  1  0
 11 10  1  0
 11 12  1  0
 11 13  1  0
 11 14  1  0
 14 15  2  0
 15 16  1  0
 16 17  2  0
 17 18  1  0
 14 19  1  0
 18 19  2  0
 19 20  1  0
  7 21  1  0
  4 22  1  0
 21 22  1  0
M  END
