piperidine-amides-1183-covalent
     RDKit          3D

 23 25  0  0  0  0  0  0  0  0999 V2000
    7.0860   -3.2830   19.2930 C   0  0  0  0  0  0  0  0  0  0  0  0
    6.3560   -4.0940   20.3090 C   0  0  0  0  0  0  0  0  0  0  0  0
    5.3540   -4.7340   19.9530 O   0  0  0  0  0  0  0  0  0  0  0  0
    6.8470   -4.1400   21.6350 N   0  0  0  0  0  0  0  0  0  0  0  0
    7.7320   -3.1200   22.1770 C   0  0  0  0  0  0  0  0  0  0  0  0
    7.5250   -2.9980   23.6950 C   0  0  0  0  0  0  0  0  0  0  0  0
    6.1690   -3.5280   23.9900 C   0  0  0  0  0  0  0  0  0  0  0  0
    5.6370   -3.2270   25.3420 C   0  0  0  0  0  0  0  0  0  0  0  0
    4.4070   -3.2560   25.4450 O   0  0  0  0  0  0  0  0  0  0  0  0
    6.4740   -2.9340   26.4290 N   0  0  0  0  0  0  0  0  0  0  0  0
    6.1970   -3.2460   27.7910 C   0  0  0  0  0  0  0  0  0  0  0  0
    6.0520   -2.3260   28.8110 C   0  0  0  0  0  0  0  0  0  0  0  0
    7.1360   -1.4830   29.1470 C   0  0  0  0  0  0  0  0  0  0  0  0
    7.0990   -0.5450   30.1450 C   0  0  0  0  0  0  0  0  0  0  0  0
    5.8760   -0.3680   30.9410 C   0  0  0  0  0  0  0  0  0  0  0  0
    4.6480   -1.2060   30.6780 C   0  0  0  0  0  0  0  0  0  0  0  0
    4.8960   -2.1910   29.5280 C   0  0  0  0  0  0  0  0  0  0  0  0
    3.4680   -1.0650   31.4170 C   0  0  0  0  0  0  0  0  0  0  0  0
    3.8260   -0.7380   32.8280 C   0  0  0  0  0  0  0  0  0  0  0  0
    4.4860    0.5910   32.4570 C   0  0  0  0  0  0  0  0  0  0  0  0
    5.7660    0.5410   31.9530 C   0  0  0  0  0  0  0  0  0  0  0  0
    6.0430   -4.9970   23.7620 C   0  0  0  0  0  0  0  0  0  0  0  0
    6.6450   -5.3510   22.4240 C   0  0  0  0  0  0  0  0  0  0  0  0
  1  2  1  0
  2  3  2  0
  2  4  1  0
  4  5  1  0
  5  6  1  0
  6  7  1  0
  7  8  1  0
  8  9  2  0
  8 10  1  0
 10 11  1  0
 11 12  1  0
 12 13  2  0
 13 14  1  0
 14 15  2  0
 15 16  1  0
 12 17  1  0
 16 17  2  0
 16 18  1  0
 18 19  1  0
 19 20  1  0
 15 21  1  0
 20 21  1  0
  7 22  1  0
  4 23  1  0
 22 23  1  0
M  END
