piperidine-amides-2421-covalent
     RDKit          3D

 26 28  0  0  0  0  0  0  0  0999 V2000
    7.0340   -3.2770   19.2660 C   0  0  0  0  0  0  0  0  0  0  0  0
    6.2470   -4.0280   20.2760 C   0  0  0  0  0  0  0  0  0  0  0  0
    5.2330   -4.5950   19.8890 O   0  0  0  0  0  0  0  0  0  0  0  0
    6.6780   -4.1050   21.6000 N   0  0  0  0  0  0  0  0  0  0  0  0
    7.5420   -3.1030   22.1550 C   0  0  0  0  0  0  0  0  0  0  0  0
    7.1600   -2.8460   23.5890 C   0  0  0  0  0  0  0  0  0  0  0  0
    5.7780   -3.4210   23.9060 C   0  0  0  0  0  0  0  0  0  0  0  0
    5.4030   -3.0930   25.3110 C   0  0  0  0  0  0  0  0  0  0  0  0
    4.5180   -3.7610   25.8580 O   0  0  0  0  0  0  0  0  0  0  0  0
    6.0000   -2.0250   26.0330 N   0  0  0  0  0  0  0  0  0  0  0  0
    5.9080   -1.9890   27.4890 C   0  0  0  0  0  0  0  0  0  0  0  0
    7.2870   -2.3190   27.9350 C   0  0  0  0  0  0  0  0  0  0  0  0
    7.9220   -3.0920   27.0860 C   0  0  0  0  0  0  0  0  0  0  0  0
    7.9140   -4.4140   27.4120 C   0  0  0  0  0  0  0  0  0  0  0  0
    8.5030   -5.3140   26.6070 C   0  0  0  0  0  0  0  0  0  0  0  0
    9.1720   -4.9230   25.3500 C   0  0  0  0  0  0  0  0  0  0  0  0
    9.7020   -5.8840   24.6030 O   0  0  0  0  0  0  0  0  0  0  0  0
    8.9080   -7.0310   24.7000 C   0  0  0  0  0  0  0  0  0  0  0  0
    9.1410   -3.4660   25.0950 C   0  0  0  0  0  0  0  0  0  0  0  0
    9.8780   -3.2900   23.8130 C   0  0  0  0  0  0  0  0  0  0  0  0
    9.9620   -1.8720   23.3790 C   0  0  0  0  0  0  0  0  0  0  0  0
    9.3320   -0.7770   24.2190 C   0  0  0  0  0  0  0  0  0  0  0  0
    8.6290   -1.1470   25.4770 C   0  0  0  0  0  0  0  0  0  0  0  0
    8.5370   -2.5890   25.9340 C   0  0  0  0  0  0  0  0  0  0  0  0
    5.8350   -4.9230   23.7120 C   0  0  0  0  0  0  0  0  0  0  0  0
    6.3460   -5.2830   22.3350 C   0  0  0  0  0  0  0  0  0  0  0  0
  1  2  1  0
  2  3  2  0
  2  4  1  0
  4  5  1  0
  5  6  1  0
  6  7  1  0
  7  8  1  0
  8  9  2  0
  8 10  1  0
 10 11  1  0
 11 12  1  0
 12 13  1  0
 13 14  2  0
 14 15  1  0
 15 16  2  0
 16 17  1  0
 17 18  1  0
 16 19  1  0
 19 20  1  0
 20 21  2  0
 21 22  1  0
 22 23  2  0
 13 24  1  0
 19 24  2  0
 23 24  1  0
  7 25  1  0
  4 26  1  0
 25 26  1  0
M  END
