piperidine-amides-21759-covalent
     RDKit          3D

 23 25  0  0  0  0  0  0  0  0999 V2000
    7.0570   -3.3220   19.2790 C   0  0  0  0  0  0  0  0  0  0  0  0
    6.3570   -4.1390   20.2800 C   0  0  0  0  0  0  0  0  0  0  0  0
    5.2820   -4.6730   19.9150 O   0  0  0  0  0  0  0  0  0  0  0  0
    6.8940   -4.3430   21.5490 N   0  0  0  0  0  0  0  0  0  0  0  0
    6.7110   -5.5850   22.2600 C   0  0  0  0  0  0  0  0  0  0  0  0
    6.2130   -5.2850   23.6500 C   0  0  0  0  0  0  0  0  0  0  0  0
    6.1020   -3.8050   23.9120 C   0  0  0  0  0  0  0  0  0  0  0  0
    5.7170   -3.5610   25.3210 C   0  0  0  0  0  0  0  0  0  0  0  0
    4.5060   -3.2990   25.4970 O   0  0  0  0  0  0  0  0  0  0  0  0
    6.5190   -3.5710   26.4910 N   0  0  0  0  0  0  0  0  0  0  0  0
    5.7950   -3.1960   27.6780 C   0  0  0  0  0  0  0  0  0  0  0  0
    6.0910   -4.1750   28.7930 C   0  0  0  0  0  0  0  0  0  0  0  0
    7.0460   -5.1530   28.6860 C   0  0  0  0  0  0  0  0  0  0  0  0
    7.5770   -5.4500   27.4610 C   0  0  0  0  0  0  0  0  0  0  0  0
    7.7380   -4.3700   26.6150 C   0  0  1  0  0  0  0  0  0  0  0  0
    8.4400   -4.5830   25.4450 C   0  0  0  0  0  0  0  0  0  0  0  0
    9.6150   -3.9130   25.3770 N   0  0  0  0  0  0  0  0  0  0  0  0
    9.6820   -2.6260   24.9260 C   0  0  0  0  0  0  0  0  0  0  0  0
   11.1050   -2.2830   24.9940 C   0  0  0  0  0  0  0  0  0  0  0  0
   11.7100   -3.4420   25.4940 N   0  0  0  0  0  0  0  0  0  0  0  0
   10.8350   -4.4300   25.7340 N   0  0  0  0  0  0  0  0  0  0  0  0
    7.3270   -3.0460   23.5540 C   0  0  0  0  0  0  0  0  0  0  0  0
    7.6590   -3.2230   22.1010 C   0  0  0  0  0  0  0  0  0  0  0  0
  1  2  1  0
  2  3  2  0
  2  4  1  0
  4  5  1  0
  5  6  1  0
  6  7  1  0
  7  8  1  0
  8  9  2  0
  8 10  1  0
 10 11  1  0
 11 12  1  0
 12 13  1  0
 13 14  1  0
 10 15  1  0
 14 15  1  0
 15 16  1  6
 16 17  1  0
 17 18  1  0
 18 19  2  0
 19 20  1  0
 17 21  1  0
 20 21  2  0
  7 22  1  0
  4 23  1  0
 22 23  1  0
M  END
