piperidine-amides-24325-covalent
     RDKit          3D

 24 26  0  0  0  0  0  0  0  0999 V2000
    7.1070   -3.3200   19.3070 C   0  0  0  0  0  0  0  0  0  0  0  0
    6.4140   -4.1790   20.2740 C   0  0  0  0  0  0  0  0  0  0  0  0
    5.3620   -4.7800   19.9600 O   0  0  0  0  0  0  0  0  0  0  0  0
    6.9650   -4.3790   21.5380 N   0  0  0  0  0  0  0  0  0  0  0  0
    6.5100   -5.4950   22.3170 C   0  0  0  0  0  0  0  0  0  0  0  0
    5.5520   -4.8800   23.3310 C   0  0  0  0  0  0  0  0  0  0  0  0
    6.4230   -4.0320   24.2240 C   0  0  0  0  0  0  0  0  0  0  0  0
    5.5670   -3.2980   25.1720 C   0  0  0  0  0  0  0  0  0  0  0  0
    4.8370   -2.3910   24.7360 O   0  0  0  0  0  0  0  0  0  0  0  0
    5.5640   -3.6350   26.5320 N   0  0  0  0  0  0  0  0  0  0  0  0
    4.3800   -3.9320   27.2360 C   0  0  0  0  0  0  0  0  0  0  0  0
    4.7340   -5.0770   28.1510 C   0  0  0  0  0  0  0  0  0  0  0  0
    5.6480   -4.8910   29.1330 C   0  0  0  0  0  0  0  0  0  0  0  0
    5.2950   -4.0440   29.9820 O   0  0  0  0  0  0  0  0  0  0  0  0
    6.0990   -6.1040   29.5800 C   0  0  0  0  0  0  0  0  0  0  0  0
    5.3390   -6.5240   30.7070 N   0  0  0  0  0  0  0  0  0  0  0  0
    5.6030   -7.5870   31.5220 C   0  0  0  0  0  0  0  0  0  0  0  0
    4.6400   -7.6200   32.4480 C   0  0  0  0  0  0  0  0  0  0  0  0
    3.7480   -6.6520   32.3120 N   0  0  0  0  0  0  0  0  0  0  0  0
    4.2170   -5.9830   31.2090 N   0  0  0  0  0  0  0  0  0  0  0  0
    6.7210   -4.5230   28.3830 C   0  0  0  0  0  0  0  0  0  0  0  0
    6.4900   -3.2990   27.5370 C   0  0  0  0  0  0  0  0  0  0  0  0
    7.2830   -3.0370   23.5510 C   0  0  0  0  0  0  0  0  0  0  0  0
    7.6740   -3.3210   22.1770 C   0  0  0  0  0  0  0  0  0  0  0  0
  1  2  1  0
  2  3  2  0
  2  4  1  0
  4  5  1  0
  5  6  1  0
  6  7  1  0
  7  8  1  0
  8  9  2  0
  8 10  1  0
 10 11  1  0
 11 12  1  0
 12 13  1  0
 13 14  1  0
 13 15  1  0
 15 16  1  0
 16 17  1  0
 17 18  2  0
 18 19  1  0
 16 20  1  0
 19 20  2  0
 13 21  1  0
 10 22  1  0
 21 22  1  0
  7 23  1  0
  4 24  1  0
 23 24  1  0
M  END
