piperidine-amides-11340-covalent
     RDKit          3D

 21 23  0  0  0  0  0  0  0  0999 V2000
    7.1070   -3.2760   19.1900 C   0  0  0  0  0  0  0  0  0  0  0  0
    6.3520   -4.0080   20.2090 C   0  0  0  0  0  0  0  0  0  0  0  0
    5.2890   -4.5670   19.8900 O   0  0  0  0  0  0  0  0  0  0  0  0
    6.8300   -4.1330   21.5240 N   0  0  0  0  0  0  0  0  0  0  0  0
    7.7410   -3.1750   22.1030 C   0  0  0  0  0  0  0  0  0  0  0  0
    7.1120   -2.7360   23.3910 C   0  0  0  0  0  0  0  0  0  0  0  0
    6.6740   -3.8930   24.2440 C   0  0  0  0  0  0  0  0  0  0  0  0
    5.9340   -3.4310   25.4370 C   0  0  0  0  0  0  0  0  0  0  0  0
    4.6650   -3.3950   25.4290 O   0  0  0  0  0  0  0  0  0  0  0  0
    6.5840   -3.0090   26.6220 N   0  0  0  0  0  0  0  0  0  0  0  0
    6.7340   -1.5620   26.9110 C   0  0  0  0  0  0  0  0  0  0  0  0
    5.8750   -1.2330   28.0760 C   0  0  1  0  0  0  0  0  0  0  0  0
    4.4870   -1.7450   28.0820 C   0  0  0  0  0  0  0  0  0  0  0  0
    3.8260   -0.7770   27.6640 O   0  0  0  0  0  0  0  0  0  0  0  0
    6.5060   -1.7460   29.3860 C   0  0  0  0  0  0  0  0  0  0  0  0
    7.0320   -0.6640   30.2990 C   0  0  2  0  0  0  0  0  0  0  0  0
    6.1940    0.2020   30.8670 C   0  0  0  0  0  0  0  0  0  0  0  0
    6.5490    0.6470   29.5710 C   0  0  2  0  0  0  0  0  0  0  0  0
    5.9190    0.2660   28.4000 C   0  0  0  0  0  0  0  0  0  0  0  0
    5.7770   -4.9020   23.5000 C   0  0  0  0  0  0  0  0  0  0  0  0
    6.5400   -5.3440   22.2500 C   0  0  0  0  0  0  0  0  0  0  0  0
  1  2  1  0
  2  3  2  0
  2  4  1  0
  4  5  1  0
  5  6  1  0
  6  7  1  0
  7  8  1  0
  8  9  2  0
  8 10  1  0
 10 11  1  0
 12 11  1  6
 12 13  1  0
 13 14  1  0
 12 15  1  0
 16 15  1  6
 16 17  1  0
 16 18  1  0
 18 17  1  1
 12 19  1  0
 18 19  1  0
  7 20  1  0
  4 21  1  0
 20 21  1  0
M  END
