piperidine-amides-23703-covalent
     RDKit          3D

 24 26  0  0  0  0  0  0  0  0999 V2000
    7.1250   -3.4010   19.3110 C   0  0  0  0  0  0  0  0  0  0  0  0
    6.4530   -4.2230   20.3210 C   0  0  0  0  0  0  0  0  0  0  0  0
    5.3780   -4.7780   19.9740 O   0  0  0  0  0  0  0  0  0  0  0  0
    7.0460   -4.4280   21.5970 N   0  0  0  0  0  0  0  0  0  0  0  0
    6.5010   -5.4260   22.4310 C   0  0  0  0  0  0  0  0  0  0  0  0
    6.0210   -4.9310   23.7290 C   0  0  0  0  0  0  0  0  0  0  0  0
    6.5240   -3.6130   24.2450 C   0  0  0  0  0  0  0  0  0  0  0  0
    5.5590   -3.0190   25.2290 C   0  0  0  0  0  0  0  0  0  0  0  0
    4.7080   -2.2140   24.8170 O   0  0  0  0  0  0  0  0  0  0  0  0
    5.5360   -3.3710   26.6020 N   0  0  0  0  0  0  0  0  0  0  0  0
    4.9830   -4.6370   27.0310 C   0  0  0  0  0  0  0  0  0  0  0  0
    5.7520   -5.4130   27.9990 C   0  0  0  0  0  0  0  0  0  0  0  0
    6.8400   -5.0090   28.9550 C   0  0  0  0  0  0  0  0  0  0  0  0
    7.0900   -3.4630   28.8370 N   0  0  0  0  0  0  0  0  0  0  0  0
    6.2910   -2.6340   27.8560 C   0  0  0  0  0  0  0  0  0  0  0  0
    6.5840   -1.0960   27.8370 C   0  0  0  0  0  0  0  0  0  0  0  0
    6.0610   -0.3700   26.7730 O   0  0  0  0  0  0  0  0  0  0  0  0
    7.3100   -0.4260   28.8230 O   0  0  0  0  0  0  0  0  0  0  0  0
    7.1460   -0.9780   29.9830 C   0  0  0  0  0  0  0  0  0  0  0  0
    5.5530   -3.5740   27.3210 N   0  0  0  0  0  0  0  0  0  0  0  0
    6.3350   -4.2230   28.2300 C   0  0  0  0  0  0  0  0  0  0  0  0
    6.2660   -2.8440   27.7510 C   0  0  0  0  0  0  0  0  0  0  0  0
    6.8730   -2.6290   23.1560 C   0  0  0  0  0  0  0  0  0  0  0  0
    7.7770   -3.3460   22.1690 C   0  0  0  0  0  0  0  0  0  0  0  0
  1  2  1  0
  2  3  2  0
  2  4  1  0
  4  5  1  0
  5  6  1  0
  6  7  1  0
  7  8  1  0
  8  9  2  0
  8 10  1  0
 10 11  1  0
 11 12  1  0
 12 13  1  0
 13 14  2  0
 14 15  1  0
 15 16  1  0
 16 17  2  0
 16 18  1  0
 18 19  1  0
 15 20  2  0
 12 21  2  0
 20 21  1  0
 10 22  1  0
 21 22  1  0
  7 23  1  0
  4 24  1  0
 23 24  1  0
M  END
