piperidine-amides-2309-covalent
     RDKit          3D

 27 29  0  0  0  0  0  0  0  0999 V2000
    7.1150   -3.2450   19.1790 C   0  0  0  0  0  0  0  0  0  0  0  0
    6.3450   -3.9820   20.2180 C   0  0  0  0  0  0  0  0  0  0  0  0
    5.2850   -4.4920   19.8630 O   0  0  0  0  0  0  0  0  0  0  0  0
    6.8330   -4.1330   21.5210 N   0  0  0  0  0  0  0  0  0  0  0  0
    6.3650   -5.1890   22.3670 C   0  0  0  0  0  0  0  0  0  0  0  0
    5.6030   -4.5550   23.4940 C   0  0  0  0  0  0  0  0  0  0  0  0
    6.5430   -3.5940   24.2360 C   0  0  0  0  0  0  0  0  0  0  0  0
    5.8260   -3.1080   25.4380 C   0  0  0  0  0  0  0  0  0  0  0  0
    4.5920   -3.0480   25.4050 O   0  0  0  0  0  0  0  0  0  0  0  0
    6.5290   -2.6960   26.6050 N   0  0  0  0  0  0  0  0  0  0  0  0
    6.3910   -3.4040   27.8720 C   0  0  2  0  0  0  0  0  0  0  0  0
    7.5200   -4.3620   27.9070 C   0  0  0  0  0  0  0  0  0  0  0  0
    7.6430   -5.1720   26.8550 C   0  0  0  0  0  0  0  0  0  0  0  0
    8.8740   -5.5840   26.7140 C   0  0  0  0  0  0  0  0  0  0  0  0
    9.0830   -6.3590   25.7210 C   0  0  0  0  0  0  0  0  0  0  0  0
    8.1730   -6.8890   24.6860 C   0  0  0  0  0  0  0  0  0  0  0  0
    6.7960   -6.3940   24.9010 C   0  0  0  0  0  0  0  0  0  0  0  0
    6.3670   -5.4510   26.0390 C   0  0  0  0  0  0  0  0  0  0  0  0
    5.2910   -4.4140   28.0300 C   0  0  0  0  0  0  0  0  0  0  0  0
    3.9850   -3.9990   27.4130 C   0  0  0  0  0  0  0  0  0  0  0  0
    3.2740   -4.8000   26.3400 C   0  0  0  0  0  0  0  0  0  0  0  0
    1.9980   -4.3170   25.7930 C   0  0  0  0  0  0  0  0  0  0  0  0
    1.3610   -3.0450   26.2650 C   0  0  0  0  0  0  0  0  0  0  0  0
    1.9580   -2.3050   27.2160 N   0  0  0  0  0  0  0  0  0  0  0  0
    3.2140   -2.7200   27.7950 C   0  0  0  0  0  0  0  0  0  0  0  0
    6.9430   -2.5140   23.2750 C   0  0  0  0  0  0  0  0  0  0  0  0
    7.7540   -3.1510   22.1360 C   0  0  0  0  0  0  0  0  0  0  0  0
  1  2  1  0
  2  3  2  0
  2  4  1  0
  4  5  1  0
  5  6  1  0
  6  7  1  0
  7  8  1  0
  8  9  2  0
  8 10  1  0
 10 11  1  0
 11 12  1  6
 12 13  1  0
 13 14  2  0
 14 15  1  0
 15 16  2  0
 16 17  1  0
 13 18  1  0
 17 18  2  0
 11 19  1  0
 19 20  1  0
 20 21  2  0
 21 22  1  0
 22 23  2  0
 23 24  1  0
 20 25  1  0
 24 25  2  0
  7 26  1  0
  4 27  1  0
 26 27  1  0
M  END
