piperidine-amides-13040-covalent
     RDKit          3D

 20 22  0  0  0  0  0  0  0  0999 V2000
    7.0730   -3.3310   19.2660 C   0  0  0  0  0  0  0  0  0  0  0  0
    6.3210   -4.0850   20.2890 C   0  0  0  0  0  0  0  0  0  0  0  0
    5.2720   -4.6320   19.9110 O   0  0  0  0  0  0  0  0  0  0  0  0
    6.8010   -4.2170   21.5960 N   0  0  0  0  0  0  0  0  0  0  0  0
    7.5810   -3.1690   22.1810 C   0  0  0  0  0  0  0  0  0  0  0  0
    7.1930   -2.7890   23.5420 C   0  0  0  0  0  0  0  0  0  0  0  0
    6.4790   -3.8380   24.2940 C   0  0  0  0  0  0  0  0  0  0  0  0
    5.6870   -3.2660   25.4260 C   0  0  0  0  0  0  0  0  0  0  0  0
    4.4540   -3.1840   25.2740 O   0  0  0  0  0  0  0  0  0  0  0  0
    6.2750   -2.8120   26.6400 N   0  0  0  0  0  0  0  0  0  0  0  0
    6.7050   -1.4010   26.8440 C   0  0  1  0  0  0  0  0  0  0  0  0
    5.7030   -0.4320   26.5320 C   0  0  0  0  0  0  0  0  0  0  0  0
    5.8980    0.4830   27.6070 C   0  0  0  0  0  0  0  0  0  0  0  0
    5.1110    1.6670   27.4490 N   0  0  0  0  0  0  0  0  0  0  0  0
    5.3810    2.4310   28.4860 C   0  0  0  0  0  0  0  0  0  0  0  0
    6.2720    1.6890   29.1730 C   0  0  0  0  0  0  0  0  0  0  0  0
    6.7560    0.3480   28.7650 N   0  0  0  0  0  0  0  0  0  0  0  0
    7.1480   -1.0300   28.1930 C   0  0  0  0  0  0  0  0  0  0  0  0
    5.6860   -4.8170   23.4770 C   0  0  0  0  0  0  0  0  0  0  0  0
    6.4470   -5.3090   22.4550 C   0  0  0  0  0  0  0  0  0  0  0  0
  1  2  1  0
  2  3  2  0
  2  4  1  0
  4  5  1  0
  5  6  1  0
  6  7  1  0
  7  8  1  0
  8  9  2  0
  8 10  1  0
 11 10  1  1
 11 12  1  0
 12 13  1  0
 13 14  2  0
 14 15  1  0
 15 16  2  0
 13 17  1  0
 16 17  1  0
 11 18  1  0
 17 18  1  0
  7 19  1  0
  4 20  1  0
 19 20  1  0
M  END
