piperidine-amides-13417-covalent
     RDKit          3D

 21 22  0  0  0  0  0  0  0  0999 V2000
    7.0620   -3.3290   19.2920 C   0  0  0  0  0  0  0  0  0  0  0  0
    6.3720   -4.1800   20.2980 C   0  0  0  0  0  0  0  0  0  0  0  0
    5.3470   -4.7960   19.9660 O   0  0  0  0  0  0  0  0  0  0  0  0
    6.9280   -4.3080   21.5890 N   0  0  0  0  0  0  0  0  0  0  0  0
    6.5870   -5.4070   22.4500 C   0  0  0  0  0  0  0  0  0  0  0  0
    5.6500   -4.8410   23.5250 C   0  0  0  0  0  0  0  0  0  0  0  0
    6.4000   -3.8040   24.2990 C   0  0  0  0  0  0  0  0  0  0  0  0
    5.6640   -3.3190   25.5010 C   0  0  0  0  0  0  0  0  0  0  0  0
    4.4250   -3.3320   25.4540 O   0  0  0  0  0  0  0  0  0  0  0  0
    6.3520   -2.8880   26.6430 N   0  0  0  0  0  0  0  0  0  0  0  0
    6.7110   -1.5570   27.0420 C   0  0  2  0  0  0  0  0  0  0  0  0
    7.0970   -1.3200   28.3600 C   0  0  0  0  0  0  0  0  0  0  0  0
    6.2630    0.1450   28.9190 S   0  0  0  0  0  0  0  0  0  0  0  0
    5.2450    0.3320   27.5160 C   0  0  1  0  0  0  0  0  0  0  0  0
    5.2400    1.6060   26.9880 C   0  0  0  0  0  0  0  0  0  0  0  0
    6.4850    2.1680   27.0060 F   0  0  0  0  0  0  0  0  0  0  0  0
    4.3560    2.4140   27.6710 F   0  0  0  0  0  0  0  0  0  0  0  0
    4.7520    1.5070   25.6790 F   0  0  0  0  0  0  0  0  0  0  0  0
    5.6690   -0.6210   26.4250 C   0  0  0  0  0  0  0  0  0  0  0  0
    6.8390   -2.6830   23.3990 C   0  0  0  0  0  0  0  0  0  0  0  0
    7.6180   -3.2270   22.2100 C   0  0  0  0  0  0  0  0  0  0  0  0
  1  2  1  0
  2  3  2  0
  2  4  1  0
  4  5  1  0
  5  6  1  0
  6  7  1  0
  7  8  1  0
  8  9  2  0
  8 10  1  0
 11 10  1  1
 11 12  1  0
 12 13  1  0
 13 14  1  0
 14 15  1  6
 15 16  1  0
 15 17  1  0
 15 18  1  0
 11 19  1  0
 14 19  1  0
  7 20  1  0
  4 21  1  0
 20 21  1  0
M  END
