piperidine-amides-10773-covalent
     RDKit          3D

 22 23  0  0  0  0  0  0  0  0999 V2000
    7.0720   -3.3350   19.2650 C   0  0  0  0  0  0  0  0  0  0  0  0
    6.3770   -4.1380   20.2700 C   0  0  0  0  0  0  0  0  0  0  0  0
    5.3500   -4.7610   19.9530 O   0  0  0  0  0  0  0  0  0  0  0  0
    6.8780   -4.2560   21.5710 N   0  0  0  0  0  0  0  0  0  0  0  0
    7.7610   -3.2620   22.1510 C   0  0  0  0  0  0  0  0  0  0  0  0
    7.0010   -2.6730   23.2950 C   0  0  0  0  0  0  0  0  0  0  0  0
    6.5560   -3.7590   24.2110 C   0  0  0  0  0  0  0  0  0  0  0  0
    5.8270   -3.2320   25.3850 C   0  0  0  0  0  0  0  0  0  0  0  0
    4.5650   -3.1080   25.3680 O   0  0  0  0  0  0  0  0  0  0  0  0
    6.5090   -2.8570   26.5600 N   0  0  0  0  0  0  0  0  0  0  0  0
    6.0990   -1.7180   27.4100 C   0  0  0  0  0  0  0  0  0  0  0  0
    5.8520   -0.5390   26.5620 C   0  0  0  0  0  0  0  0  0  0  0  0
    5.8070    0.7150   27.3440 C   0  0  0  0  0  0  0  0  0  0  0  0
    5.6690    0.5950   28.8050 N   0  0  0  0  0  0  0  0  0  0  0  0
    4.2280    0.2410   28.9880 C   0  0  0  0  0  0  0  0  0  0  0  0
    3.3140    1.4260   29.2390 C   0  0  0  0  0  0  0  0  0  0  0  0
    1.9880    0.8710   29.6200 C   0  0  0  0  0  0  0  0  0  0  0  0
    0.8960    0.9330   28.7940 C   0  0  0  0  0  0  0  0  0  0  0  0
    6.6290   -0.3110   29.4380 C   0  0  0  0  0  0  0  0  0  0  0  0
    6.9810   -1.3970   28.4480 C   0  0  0  0  0  0  0  0  0  0  0  0
    5.7460   -4.8450   23.5560 C   0  0  0  0  0  0  0  0  0  0  0  0
    6.5250   -5.3960   22.3880 C   0  0  0  0  0  0  0  0  0  0  0  0
  1  2  1  0
  2  3  2  0
  2  4  1  0
  4  5  1  0
  5  6  1  0
  6  7  1  0
  7  8  1  0
  8  9  2  0
  8 10  1  0
 10 11  1  0
 11 12  1  0
 12 13  1  0
 13 14  1  0
 14 15  1  0
 15 16  1  0
 16 17  1  0
 17 18  2  3
 14 19  1  0
 11 20  1  0
 19 20  1  0
  7 21  1  0
  4 22  1  0
 21 22  1  0
M  END
