piperidine-amides-23851-covalent
     RDKit          3D

 24 25  0  0  0  0  0  0  0  0999 V2000
    7.1480   -3.2650   19.2420 C   0  0  0  0  0  0  0  0  0  0  0  0
    6.3930   -4.0290   20.2500 C   0  0  0  0  0  0  0  0  0  0  0  0
    5.2990   -4.5210   19.8810 O   0  0  0  0  0  0  0  0  0  0  0  0
    6.9020   -4.2590   21.5510 N   0  0  0  0  0  0  0  0  0  0  0  0
    6.4250   -5.3840   22.2720 C   0  0  0  0  0  0  0  0  0  0  0  0
    6.0180   -5.0750   23.6370 C   0  0  0  0  0  0  0  0  0  0  0  0
    6.6610   -3.8840   24.2330 C   0  0  0  0  0  0  0  0  0  0  0  0
    5.8520   -3.3810   25.3860 C   0  0  0  0  0  0  0  0  0  0  0  0
    4.6740   -3.0220   25.1930 O   0  0  0  0  0  0  0  0  0  0  0  0
    6.3830   -3.3060   26.6840 N   0  0  0  0  0  0  0  0  0  0  0  0
    6.5280   -2.0940   27.4140 C   0  0  0  0  0  0  0  0  0  0  0  0
    6.7870   -2.1180   28.8520 C   0  0  0  0  0  0  0  0  0  0  0  0
    6.8010   -4.5430   27.3390 C   0  0  0  0  0  0  0  0  0  0  0  0
    5.8010   -5.3640   27.7800 C   0  0  0  0  0  0  0  0  0  0  0  0
    5.3500   -5.1180   29.0570 O   0  0  0  0  0  0  0  0  0  0  0  0
    4.2340   -5.8410   29.4220 C   0  0  0  0  0  0  0  0  0  0  0  0
    2.9340   -5.3180   28.8700 C   0  0  0  0  0  0  0  0  0  0  0  0
    1.8030   -6.2490   29.3920 C   0  0  0  0  0  0  0  0  0  0  0  0
    1.8630   -7.4700   30.2850 C   0  0  0  0  0  0  0  0  0  0  0  0
    3.2270   -7.8780   30.7620 C   0  0  0  0  0  0  0  0  0  0  0  0
    4.4020   -7.0360   30.3050 C   0  0  0  0  0  0  0  0  0  0  0  0
    5.7400   -7.4550   30.7820 C   0  0  0  0  0  0  0  0  0  0  0  0
    6.9070   -2.7670   23.2620 C   0  0  0  0  0  0  0  0  0  0  0  0
    7.6820   -3.2620   22.2390 C   0  0  0  0  0  0  0  0  0  0  0  0
  1  2  1  0
  2  3  2  0
  2  4  1  0
  4  5  1  0
  5  6  1  0
  6  7  1  0
  7  8  1  0
  8  9  2  0
  8 10  1  0
 10 11  1  0
 11 12  1  0
 10 13  1  0
 13 14  1  0
 14 15  1  0
 15 16  1  0
 16 17  2  0
 17 18  1  0
 18 19  2  0
 19 20  1  0
 16 21  1  0
 20 21  2  0
 21 22  1  0
  7 23  1  0
  4 24  1  0
 23 24  1  0
M  END
