piperidine-amides-23532-covalent
     RDKit          3D

 24 25  0  0  0  0  0  0  0  0999 V2000
    7.1410   -3.2950   19.2450 C   0  0  0  0  0  0  0  0  0  0  0  0
    6.4230   -4.0690   20.2660 C   0  0  0  0  0  0  0  0  0  0  0  0
    5.3300   -4.5750   19.9100 O   0  0  0  0  0  0  0  0  0  0  0  0
    6.9780   -4.2960   21.5600 N   0  0  0  0  0  0  0  0  0  0  0  0
    7.6220   -3.2040   22.2210 C   0  0  0  0  0  0  0  0  0  0  0  0
    6.9970   -2.8470   23.4910 C   0  0  0  0  0  0  0  0  0  0  0  0
    5.7700   -3.6310   23.7260 C   0  0  0  0  0  0  0  0  0  0  0  0
    4.9310   -3.1740   24.8880 C   0  0  0  0  0  0  0  0  0  0  0  0
    3.7250   -2.9770   24.6920 O   0  0  0  0  0  0  0  0  0  0  0  0
    5.3940   -2.9510   26.1880 N   0  0  0  0  0  0  0  0  0  0  0  0
    5.5350   -1.6860   26.7880 C   0  0  0  0  0  0  0  0  0  0  0  0
    6.6060   -0.8040   26.4100 C   0  0  0  0  0  0  0  0  0  0  0  0
    5.9860    0.4710   25.8140 C   0  0  0  0  0  0  0  0  0  0  0  0
    5.2560   -4.0190   27.1150 C   0  0  1  0  0  0  0  0  0  0  0  0
    5.0470   -5.4600   26.6390 C   0  0  0  0  0  0  0  0  0  0  0  0
    3.6560   -5.3930   27.1720 C   0  0  0  0  0  0  0  0  0  0  0  0
    6.5500   -4.4680   27.4490 C   0  0  0  0  0  0  0  0  0  0  0  0
    7.3540   -3.6630   28.3790 C   0  0  0  0  0  0  0  0  0  0  0  0
    8.6810   -4.2260   28.6380 C   0  0  0  0  0  0  0  0  0  0  0  0
    9.1560   -5.5010   28.0120 C   0  0  0  0  0  0  0  0  0  0  0  0
    8.2210   -6.1180   27.1410 C   0  0  0  0  0  0  0  0  0  0  0  0
    6.9680   -5.6500   26.8520 C   0  0  0  0  0  0  0  0  0  0  0  0
    5.9950   -5.1010   23.6390 C   0  0  0  0  0  0  0  0  0  0  0  0
    6.5750   -5.4700   22.2920 C   0  0  0  0  0  0  0  0  0  0  0  0
  1  2  1  0
  2  3  2  0
  2  4  1  0
  4  5  1  0
  5  6  1  0
  6  7  1  0
  7  8  1  0
  8  9  2  0
  8 10  1  0
 10 11  1  0
 11 12  1  0
 12 13  1  0
 10 14  1  0
 14 15  1  6
 15 16  1  0
 14 17  1  0
 17 18  2  0
 18 19  1  0
 19 20  2  0
 20 21  1  0
 17 22  1  0
 21 22  2  0
  7 23  1  0
  4 24  1  0
 23 24  1  0
M  END
