piperidine-amides-27854-covalent
     RDKit          3D

 26 28  0  0  0  0  0  0  0  0999 V2000
    7.1400   -3.2980   19.2020 C   0  0  0  0  0  0  0  0  0  0  0  0
    6.4280   -4.0690   20.2370 C   0  0  0  0  0  0  0  0  0  0  0  0
    5.3340   -4.5710   19.9030 O   0  0  0  0  0  0  0  0  0  0  0  0
    7.0000   -4.2740   21.4980 N   0  0  0  0  0  0  0  0  0  0  0  0
    6.4870   -5.3370   22.2650 C   0  0  0  0  0  0  0  0  0  0  0  0
    5.5130   -4.8440   23.2160 C   0  0  0  0  0  0  0  0  0  0  0  0
    6.0200   -3.7280   24.0360 C   0  0  0  0  0  0  0  0  0  0  0  0
    5.8960   -4.2490   25.4020 C   0  0  0  0  0  0  0  0  0  0  0  0
    6.2260   -5.4110   25.5440 O   0  0  0  0  0  0  0  0  0  0  0  0
    5.3350   -3.6090   26.5050 N   0  0  0  0  0  0  0  0  0  0  0  0
    4.1660   -4.1900   27.1670 C   0  0  0  0  0  0  0  0  0  0  0  0
    4.6090   -4.8950   28.3840 C   0  0  0  0  0  0  0  0  0  0  0  0
    6.0160   -5.1260   28.4590 C   0  0  2  0  0  0  0  0  0  0  0  0
    6.4200   -6.1380   29.2790 C   0  0  0  0  0  0  0  0  0  0  0  0
    7.1670   -7.0110   28.8420 O   0  0  0  0  0  0  0  0  0  0  0  0
    5.9970   -6.1920   30.5700 O   0  0  0  0  0  0  0  0  0  0  0  0
    5.5940   -7.4200   31.1600 C   0  0  0  0  0  0  0  0  0  0  0  0
    6.6900   -3.9330   28.9480 C   0  0  0  0  0  0  0  0  0  0  0  0
    6.5870   -2.7100   28.3730 C   0  0  0  0  0  0  0  0  0  0  0  0
    7.1240   -1.6510   29.0530 C   0  0  0  0  0  0  0  0  0  0  0  0
    7.0620   -0.3570   28.5790 C   0  0  0  0  0  0  0  0  0  0  0  0
    6.4400    0.0330   27.3090 C   0  0  0  0  0  0  0  0  0  0  0  0
    5.8590   -1.1290   26.5780 C   0  0  0  0  0  0  0  0  0  0  0  0
    5.9420   -2.5130   27.1530 C   0  0  0  0  0  0  0  0  0  0  0  0
    7.3770   -3.2510   23.6840 C   0  0  0  0  0  0  0  0  0  0  0  0
    7.6940   -3.1960   22.1970 C   0  0  0  0  0  0  0  0  0  0  0  0
  1  2  1  0
  2  3  2  0
  2  4  1  0
  4  5  1  0
  5  6  1  0
  6  7  1  0
  7  8  1  0
  8  9  2  0
  8 10  1  0
 10 11  1  0
 11 12  1  0
 12 13  1  0
 13 14  1  1
 14 15  2  0
 14 16  1  0
 16 17  1  0
 13 18  1  0
 18 19  1  0
 19 20  1  0
 20 21  2  0
 21 22  1  0
 22 23  2  0
 10 24  1  0
 19 24  2  0
 23 24  1  0
  7 25  1  0
  4 26  1  0
 25 26  1  0
M  END
