piperidine-amides-4131-covalent
     RDKit          3D

 27 29  0  0  0  0  0  0  0  0999 V2000
    7.0830   -3.2940   19.2450 C   0  0  0  0  0  0  0  0  0  0  0  0
    6.3390   -4.0750   20.2470 C   0  0  0  0  0  0  0  0  0  0  0  0
    5.2480   -4.5670   19.8810 O   0  0  0  0  0  0  0  0  0  0  0  0
    6.8550   -4.3220   21.5420 N   0  0  0  0  0  0  0  0  0  0  0  0
    7.5300   -3.2740   22.2200 C   0  0  0  0  0  0  0  0  0  0  0  0
    7.2150   -3.2420   23.6320 C   0  0  0  0  0  0  0  0  0  0  0  0
    5.8910   -3.7740   23.9730 C   0  0  0  0  0  0  0  0  0  0  0  0
    5.5510   -3.5080   25.4130 C   0  0  0  0  0  0  0  0  0  0  0  0
    4.3840   -3.1830   25.6980 O   0  0  0  0  0  0  0  0  0  0  0  0
    6.5040   -3.5870   26.4510 N   0  0  0  0  0  0  0  0  0  0  0  0
    6.7840   -4.6230   27.3940 C   0  0  2  0  0  0  0  0  0  0  0  0
    7.6310   -5.7610   27.0560 C   0  0  0  0  0  0  0  0  0  0  0  0
    5.5680   -5.2980   27.9550 C   0  0  0  0  0  0  0  0  0  0  0  0
    5.5480   -5.5100   29.3390 C   0  0  0  0  0  0  0  0  0  0  0  0
    4.2930   -6.2200   29.9510 C   0  0  0  0  0  0  0  0  0  0  0  0
    3.2690   -6.5760   28.9220 C   0  0  0  0  0  0  0  0  0  0  0  0
    2.1670   -7.1870   29.3750 N   0  0  0  0  0  0  0  0  0  0  0  0
    0.8650   -7.0180   29.1100 C   0  0  0  0  0  0  0  0  0  0  0  0
    0.0900   -7.9550   29.8950 C   0  0  0  0  0  0  0  0  0  0  0  0
   -1.4210   -8.1140   29.9160 C   0  0  0  0  0  0  0  0  0  0  0  0
    1.0920   -8.7120   30.6650 C   0  0  0  0  0  0  0  0  0  0  0  0
    2.3170   -8.2000   30.3070 N   0  0  0  0  0  0  0  0  0  0  0  0
    3.4400   -6.3000   27.6070 C   0  0  0  0  0  0  0  0  0  0  0  0
    2.4210   -6.6780   26.7580 F   0  0  0  0  0  0  0  0  0  0  0  0
    4.5500   -5.6800   27.1220 C   0  0  0  0  0  0  0  0  0  0  0  0
    5.6900   -5.1850   23.5390 C   0  0  0  0  0  0  0  0  0  0  0  0
    6.4310   -5.5040   22.2510 C   0  0  0  0  0  0  0  0  0  0  0  0
  1  2  1  0
  2  3  2  0
  2  4  1  0
  4  5  1  0
  5  6  1  0
  6  7  1  0
  7  8  1  0
  8  9  2  0
  8 10  1  0
 10 11  1  0
 11 12  1  6
 11 13  1  0
 13 14  2  0
 14 15  1  0
 15 16  2  0
 16 17  1  0
 17 18  1  0
 18 19  2  0
 19 20  1  0
 19 21  1  0
 17 22  1  0
 21 22  2  0
 16 23  1  0
 23 24  1  0
 13 25  1  0
 23 25  2  0
  7 26  1  0
  4 27  1  0
 26 27  1  0
M  END
