piperidine-amides-23375-covalent
     RDKit          3D

 24 26  0  0  0  0  0  0  0  0999 V2000
    7.1080   -3.3010   19.2790 C   0  0  0  0  0  0  0  0  0  0  0  0
    6.3460   -4.0540   20.2920 C   0  0  0  0  0  0  0  0  0  0  0  0
    5.2850   -4.5950   19.9020 O   0  0  0  0  0  0  0  0  0  0  0  0
    6.8080   -4.2000   21.6290 N   0  0  0  0  0  0  0  0  0  0  0  0
    7.6310   -3.1900   22.1930 C   0  0  0  0  0  0  0  0  0  0  0  0
    7.2920   -2.9580   23.5770 C   0  0  0  0  0  0  0  0  0  0  0  0
    6.0530   -3.6630   23.9380 C   0  0  0  0  0  0  0  0  0  0  0  0
    5.6570   -3.4710   25.3740 C   0  0  0  0  0  0  0  0  0  0  0  0
    4.5610   -3.9150   25.7490 O   0  0  0  0  0  0  0  0  0  0  0  0
    6.4660   -2.7810   26.3010 N   0  0  0  0  0  0  0  0  0  0  0  0
    7.1020   -1.5490   26.0600 C   0  0  0  0  0  0  0  0  0  0  0  0
    6.1290   -2.9690   27.7070 C   0  0  0  0  0  0  0  0  0  0  0  0
    5.9700   -1.6640   28.5310 C   0  0  2  0  0  0  0  0  0  0  0  0
    5.7880   -2.0610   29.8500 O   0  0  0  0  0  0  0  0  0  0  0  0
    4.6840   -1.3910   30.4330 C   0  0  0  0  0  0  0  0  0  0  0  0
    4.7830    0.1440   30.3280 C   0  0  0  0  0  0  0  0  0  0  0  0
    4.5040   -0.0480   28.8870 C   0  0  0  0  0  0  0  0  0  0  0  0
    3.4160    0.9660   28.5910 C   0  0  0  0  0  0  0  0  0  0  0  0
    2.8290    1.1010   27.2120 C   0  0  0  0  0  0  0  0  0  0  0  0
    3.4150    0.1450   26.1700 C   0  0  0  0  0  0  0  0  0  0  0  0
    4.5260   -0.8680   26.5390 C   0  0  0  0  0  0  0  0  0  0  0  0
    5.0080   -0.8790   27.9510 C   0  0  0  0  0  0  0  0  0  0  0  0
    6.0310   -5.1240   23.5750 C   0  0  0  0  0  0  0  0  0  0  0  0
    6.6220   -5.4340   22.3480 C   0  0  0  0  0  0  0  0  0  0  0  0
  1  2  1  0
  2  3  2  0
  2  4  1  0
  4  5  1  0
  5  6  1  0
  6  7  1  0
  7  8  1  0
  8  9  2  0
  8 10  1  0
 10 11  1  0
 10 12  1  0
 13 12  1  6
 13 14  1  0
 14 15  1  0
 15 16  1  0
 16 17  1  0
 17 18  2  0
 18 19  1  0
 19 20  2  0
 20 21  1  0
 13 22  1  0
 17 22  1  0
 21 22  2  0
  7 23  1  0
  4 24  1  0
 23 24  1  0
M  END
