piperidine-amides-4505-covalent
     RDKit          3D

 25 26  0  0  0  0  0  0  0  0999 V2000
    7.0630   -3.2810   19.1850 C   0  0  0  0  0  0  0  0  0  0  0  0
    6.3210   -4.0090   20.2430 C   0  0  0  0  0  0  0  0  0  0  0  0
    5.2670   -4.5670   19.8850 O   0  0  0  0  0  0  0  0  0  0  0  0
    6.7980   -4.1050   21.5630 N   0  0  0  0  0  0  0  0  0  0  0  0
    6.5910   -5.3030   22.2920 C   0  0  0  0  0  0  0  0  0  0  0  0
    6.3550   -5.0220   23.7010 C   0  0  0  0  0  0  0  0  0  0  0  0
    6.1220   -3.5840   23.9730 C   0  0  0  0  0  0  0  0  0  0  0  0
    5.8920   -3.3190   25.4170 C   0  0  0  0  0  0  0  0  0  0  0  0
    4.7070   -3.2490   25.7980 O   0  0  0  0  0  0  0  0  0  0  0  0
    6.9600   -3.1310   26.3300 N   0  0  0  0  0  0  0  0  0  0  0  0
    7.5810   -4.2310   27.1180 C   0  0  0  0  0  0  0  0  0  0  0  0
    6.5760   -5.0660   27.8450 C   0  0  0  0  0  0  0  0  0  0  0  0
    5.7510   -4.4290   28.8250 N   0  0  0  0  0  0  0  0  0  0  0  0
    4.6460   -5.1370   29.4420 C   0  0  0  0  0  0  0  0  0  0  0  0
    3.4350   -4.7410   29.3870 O   0  0  0  0  0  0  0  0  0  0  0  0
    5.1640   -6.2490   30.0590 C   0  0  0  0  0  0  0  0  0  0  0  0
    5.9030   -7.1430   29.4070 C   0  0  0  0  0  0  0  0  0  0  0  0
    6.2850   -8.1370   30.2520 C   0  0  0  0  0  0  0  0  0  0  0  0
    7.4000   -9.6930   29.6810 Br  0  0  0  0  0  0  0  0  0  0  0  0
    5.7120   -7.7770   31.5430 C   0  0  0  0  0  0  0  0  0  0  0  0
    5.7210   -8.5570   33.3330 Br  0  0  0  0  0  0  0  0  0  0  0  0
    5.0330   -6.6180   31.3340 N   0  0  0  0  0  0  0  0  0  0  0  0
    4.3850   -6.0850   32.3850 C   0  0  0  0  0  0  0  0  0  0  0  0
    7.2090   -2.6820   23.4370 C   0  0  0  0  0  0  0  0  0  0  0  0
    7.7470   -3.1600   22.1320 C   0  0  0  0  0  0  0  0  0  0  0  0
  1  2  1  0
  2  3  2  0
  2  4  1  0
  4  5  1  0
  5  6  1  0
  6  7  1  0
  7  8  1  0
  8  9  2  0
  8 10  1  0
 10 11  1  0
 11 12  1  0
 12 13  1  0
 13 14  1  0
 14 15  2  0
 14 16  1  0
 16 17  2  0
 17 18  1  0
 18 19  1  0
 18 20  2  0
 20 21  1  0
 16 22  1  0
 20 22  1  0
 22 23  1  0
  7 24  1  0
  4 25  1  0
 24 25  1  0
M  END
