piperidine-amides-30800-covalent
     RDKit          3D

 28 30  0  0  0  0  0  0  0  0999 V2000
    7.1070   -3.2620   19.1740 C   0  0  0  0  0  0  0  0  0  0  0  0
    6.3300   -3.9880   20.1830 C   0  0  0  0  0  0  0  0  0  0  0  0
    5.2540   -4.5140   19.8650 O   0  0  0  0  0  0  0  0  0  0  0  0
    6.8020   -4.1500   21.4860 N   0  0  0  0  0  0  0  0  0  0  0  0
    6.5460   -5.3610   22.2270 C   0  0  0  0  0  0  0  0  0  0  0  0
    5.7760   -4.9250   23.4460 C   0  0  0  0  0  0  0  0  0  0  0  0
    6.5310   -3.8750   24.2010 C   0  0  0  0  0  0  0  0  0  0  0  0
    5.7560   -3.3480   25.3550 C   0  0  0  0  0  0  0  0  0  0  0  0
    4.4910   -3.3540   25.3140 O   0  0  0  0  0  0  0  0  0  0  0  0
    6.3550   -2.8180   26.5230 N   0  0  0  0  0  0  0  0  0  0  0  0
    6.1900   -3.5620   27.7920 C   0  0  0  0  0  0  0  0  0  0  0  0
    4.9360   -3.0710   28.4210 C   0  0  0  0  0  0  0  0  0  0  0  0
    4.9920   -2.0820   29.5050 C   0  0  0  0  0  0  0  0  0  0  0  0
    3.7120   -1.5970   30.1300 C   0  0  0  0  0  0  0  0  0  0  0  0
    2.3840   -2.1300   29.6370 C   0  0  0  0  0  0  0  0  0  0  0  0
    2.5300   -3.1200   28.5370 C   0  0  0  0  0  0  0  0  0  0  0  0
    3.7250   -3.5370   27.9940 C   0  0  0  0  0  0  0  0  0  0  0  0
    6.7260   -1.4470   26.6130 C   0  0  0  0  0  0  0  0  0  0  0  0
    6.6410   -0.8070   27.9870 C   0  0  0  0  0  0  0  0  0  0  0  0
    5.6490    0.2980   28.3200 C   0  0  0  0  0  0  0  0  0  0  0  0
    5.7870    0.7280   29.7130 C   0  0  0  0  0  0  0  0  0  0  0  0
    6.3310    0.6090   30.7290 C   0  0  0  0  0  0  0  0  0  0  0  0
    6.1000    1.2600   31.7730 O   0  0  0  0  0  0  0  0  0  0  0  0
    5.8810    1.9170   32.8510 C   0  0  0  0  0  0  0  0  0  0  0  0
    7.2870   -0.4020   30.5250 C   0  0  0  0  0  0  0  0  0  0  0  0
    7.4520   -1.1250   29.1430 C   0  0  0  0  0  0  0  0  0  0  0  0
    6.9660   -2.7170   23.3840 C   0  0  0  0  0  0  0  0  0  0  0  0
    7.6600   -3.1850   22.1360 C   0  0  0  0  0  0  0  0  0  0  0  0
  1  2  1  0
  2  3  2  0
  2  4  1  0
  4  5  1  0
  5  6  1  0
  6  7  1  0
  7  8  1  0
  8  9  2  0
  8 10  1  0
 10 11  1  0
 11 12  1  0
 12 13  2  0
 13 14  1  0
 14 15  2  0
 15 16  1  0
 12 17  1  0
 16 17  2  0
 10 18  1  0
 18 19  1  0
 19 20  2  0
 20 21  1  0
 21 22  2  0
 22 23  1  0
 23 24  1  0
 22 25  1  0
 19 26  1  0
 25 26  2  0
  7 27  1  0
  4 28  1  0
 27 28  1  0
M  END
