piperidine-amides-26922-covalent
     RDKit          3D

 24 26  0  0  0  0  0  0  0  0999 V2000
    7.0510   -3.3610   19.3640 C   0  0  0  0  0  0  0  0  0  0  0  0
    6.4010   -4.2210   20.3550 C   0  0  0  0  0  0  0  0  0  0  0  0
    5.3610   -4.8210   19.9730 O   0  0  0  0  0  0  0  0  0  0  0  0
    6.9460   -4.4040   21.6370 N   0  0  0  0  0  0  0  0  0  0  0  0
    6.5370   -5.4840   22.4850 C   0  0  0  0  0  0  0  0  0  0  0  0
    5.7380   -4.9030   23.6280 C   0  0  0  0  0  0  0  0  0  0  0  0
    6.4330   -3.7600   24.3480 C   0  0  0  0  0  0  0  0  0  0  0  0
    5.4620   -3.1150   25.2840 C   0  0  0  0  0  0  0  0  0  0  0  0
    4.4220   -2.6270   24.8070 O   0  0  0  0  0  0  0  0  0  0  0  0
    5.6680   -3.0580   26.6780 N   0  0  0  0  0  0  0  0  0  0  0  0
    4.5930   -2.6720   27.5370 C   0  0  0  0  0  0  0  0  0  0  0  0
    4.7630   -3.7550   28.4950 C   0  0  0  0  0  0  0  0  0  0  0  0
    5.9100   -4.3860   28.2310 C   0  0  0  0  0  0  0  0  0  0  0  0
    6.5900   -5.4310   28.9480 C   0  0  0  0  0  0  0  0  0  0  0  0
    7.8210   -5.8470   28.3630 C   0  0  0  0  0  0  0  0  0  0  0  0
    8.0250   -5.1350   27.2730 C   0  0  0  0  0  0  0  0  0  0  0  0
    9.5050   -5.8460   26.9000 S   0  0  0  0  0  0  0  0  0  0  0  0
   10.2150   -5.0000   25.5900 N   0  0  0  0  0  0  0  0  0  0  0  0
   10.0560   -5.7130   28.2290 O   0  0  0  0  0  0  0  0  0  0  0  0
    9.5250   -7.2000   26.5330 O   0  0  0  0  0  0  0  0  0  0  0  0
    6.9950   -4.9790   27.9920 C   0  0  0  0  0  0  0  0  0  0  0  0
    6.6400   -4.0130   27.0610 C   0  0  0  0  0  0  0  0  0  0  0  0
    6.9300   -2.7020   23.4110 C   0  0  0  0  0  0  0  0  0  0  0  0
    7.6520   -3.2600   22.2090 C   0  0  0  0  0  0  0  0  0  0  0  0
  1  2  1  0
  2  3  2  0
  2  4  1  0
  4  5  1  0
  5  6  1  0
  6  7  1  0
  7  8  1  0
  8  9  2  0
  8 10  1  0
 10 11  1  0
 11 12  1  0
 12 13  1  0
 13 14  1  0
 14 15  2  0
 15 16  1  0
 16 17  1  0
 17 18  1  0
 17 19  2  0
 17 20  2  0
 16 21  2  0
 10 22  1  0
 13 22  2  0
 21 22  1  0
  7 23  1  0
  4 24  1  0
 23 24  1  0
M  END
