piperidine-amides-32830-covalent
     RDKit          3D

 29 31  0  0  0  0  0  0  0  0999 V2000
    7.1680   -3.2900   19.1870 C   0  0  0  0  0  0  0  0  0  0  0  0
    6.4230   -4.1040   20.1850 C   0  0  0  0  0  0  0  0  0  0  0  0
    5.3120   -4.5750   19.8920 O   0  0  0  0  0  0  0  0  0  0  0  0
    7.0360   -4.3770   21.4140 N   0  0  0  0  0  0  0  0  0  0  0  0
    6.7220   -5.5860   22.1210 C   0  0  0  0  0  0  0  0  0  0  0  0
    5.8650   -5.1380   23.2900 C   0  0  0  0  0  0  0  0  0  0  0  0
    6.6430   -4.0850   24.0000 C   0  0  0  0  0  0  0  0  0  0  0  0
    5.8140   -3.3970   24.9680 C   0  0  0  0  0  0  0  0  0  0  0  0
    4.8650   -2.7350   24.5400 O   0  0  0  0  0  0  0  0  0  0  0  0
    6.0800   -3.5120   26.2910 N   0  0  0  0  0  0  0  0  0  0  0  0
    5.1370   -4.1090   27.1300 C   0  0  0  0  0  0  0  0  0  0  0  0
    5.4100   -5.1310   27.9740 C   0  0  0  0  0  0  0  0  0  0  0  0
    5.4240   -4.8080   29.2900 C   0  0  0  0  0  0  0  0  0  0  0  0
    5.5730   -3.3600   29.2890 N   0  0  0  0  0  0  0  0  0  0  0  0
    4.6440   -2.3420   29.3050 C   0  0  0  0  0  0  0  0  0  0  0  0
    3.8370   -2.1170   28.2780 O   0  0  0  0  0  0  0  0  0  0  0  0
    4.4500   -1.4290   30.4780 C   0  0  0  0  0  0  0  0  0  0  0  0
    5.6620   -0.6360   30.9990 C   0  0  0  0  0  0  0  0  0  0  0  0
    6.9340   -1.0130   30.2490 C   0  0  0  0  0  0  0  0  0  0  0  0
    8.1440   -0.4160   30.5680 C   0  0  0  0  0  0  0  0  0  0  0  0
    8.2970    0.6200   31.6350 C   0  0  0  0  0  0  0  0  0  0  0  0
    9.5470    1.2070   31.9220 O   0  0  0  0  0  0  0  0  0  0  0  0
   10.7870    0.5600   31.6110 C   0  0  0  0  0  0  0  0  0  0  0  0
    7.0610    1.0120   32.3910 C   0  0  0  0  0  0  0  0  0  0  0  0
    5.6980    0.3760   32.0800 C   0  0  0  0  0  0  0  0  0  0  0  0
    6.8040   -3.1970   28.5990 C   0  0  0  0  0  0  0  0  0  0  0  0
    6.4190   -2.5430   27.2840 C   0  0  0  0  0  0  0  0  0  0  0  0
    7.1410   -2.9230   23.1820 C   0  0  0  0  0  0  0  0  0  0  0  0
    7.7420   -3.2990   22.0210 C   0  0  0  0  0  0  0  0  0  0  0  0
  1  2  1  0
  2  3  2  0
  2  4  1  0
  4  5  1  0
  5  6  1  0
  6  7  1  0
  7  8  1  0
  8  9  2  0
  8 10  1  0
 10 11  1  0
 11 12  1  0
 12 13  1  0
 13 14  1  0
 14 15  1  0
 15 16  2  0
 15 17  1  0
 17 18  1  0
 18 19  2  0
 19 20  1  0
 20 21  2  0
 21 22  1  0
 22 23  1  0
 21 24  1  0
 18 25  1  0
 24 25  2  0
 14 26  1  0
 10 27  1  0
 26 27  1  0
  7 28  1  0
  4 29  1  0
 28 29  1  0
M  END
