piperidine-amides-8813-covalent
     RDKit          3D

 22 23  0  0  0  0  0  0  0  0999 V2000
    7.0900   -3.2640   19.2300 C   0  0  0  0  0  0  0  0  0  0  0  0
    6.3630   -4.0290   20.2460 C   0  0  0  0  0  0  0  0  0  0  0  0
    5.3020   -4.5800   19.9010 O   0  0  0  0  0  0  0  0  0  0  0  0
    6.8790   -4.1820   21.5630 N   0  0  0  0  0  0  0  0  0  0  0  0
    6.4880   -5.3590   22.2990 C   0  0  0  0  0  0  0  0  0  0  0  0
    6.3000   -5.0780   23.7750 C   0  0  0  0  0  0  0  0  0  0  0  0
    6.1140   -3.5880   23.9780 C   0  0  0  0  0  0  0  0  0  0  0  0
    5.5840   -3.2630   25.3460 C   0  0  0  0  0  0  0  0  0  0  0  0
    4.3580   -3.2320   25.4290 O   0  0  0  0  0  0  0  0  0  0  0  0
    6.4640   -3.0140   26.3970 N   0  0  0  0  0  0  0  0  0  0  0  0
    6.3340   -3.6240   27.6870 C   0  0  0  0  0  0  0  0  0  0  0  0
    5.1010   -3.4380   28.3300 C   0  0  0  0  0  0  0  0  0  0  0  0
    4.6580   -2.1600   28.6820 C   0  0  0  0  0  0  0  0  0  0  0  0
    3.4510   -1.8150   29.3320 C   0  0  0  0  0  0  0  0  0  0  0  0
    3.0380   -0.5490   29.6680 F   0  0  0  0  0  0  0  0  0  0  0  0
    2.6000   -3.0090   29.6490 C   0  0  0  0  0  0  0  0  0  0  0  0
    1.4040   -2.6910   30.2880 F   0  0  0  0  0  0  0  0  0  0  0  0
    3.0770   -4.4040   29.2690 C   0  0  0  0  0  0  0  0  0  0  0  0
    4.3650   -4.5730   28.5950 C   0  0  0  0  0  0  0  0  0  0  0  0
    5.0130   -6.2960   28.1010 Br  0  0  0  0  0  0  0  0  0  0  0  0
    7.3560   -2.8840   23.6000 C   0  0  0  0  0  0  0  0  0  0  0  0
    7.6910   -3.1210   22.1260 C   0  0  0  0  0  0  0  0  0  0  0  0
  1  2  1  0
  2  3  2  0
  2  4  1  0
  4  5  1  0
  5  6  1  0
  6  7  1  0
  7  8  1  0
  8  9  2  0
  8 10  1  0
 10 11  1  0
 11 12  1  0
 12 13  2  0
 13 14  1  0
 14 15  1  0
 14 16  2  0
 16 17  1  0
 16 18  1  0
 12 19  1  0
 18 19  2  0
 19 20  1  0
  7 21  1  0
  4 22  1  0
 21 22  1  0
M  END
