piperidine-amides-4617-covalent
     RDKit          3D

 24 26  0  0  0  0  0  0  0  0999 V2000
    7.0960   -3.2830   19.2280 C   0  0  0  0  0  0  0  0  0  0  0  0
    6.3660   -4.0730   20.2460 C   0  0  0  0  0  0  0  0  0  0  0  0
    5.2890   -4.5870   19.8930 O   0  0  0  0  0  0  0  0  0  0  0  0
    6.9060   -4.2710   21.5210 N   0  0  0  0  0  0  0  0  0  0  0  0
    7.6240   -3.2060   22.1460 C   0  0  0  0  0  0  0  0  0  0  0  0
    7.0900   -2.7850   23.4360 C   0  0  0  0  0  0  0  0  0  0  0  0
    6.4860   -3.8680   24.2310 C   0  0  0  0  0  0  0  0  0  0  0  0
    5.7220   -3.3050   25.3670 C   0  0  0  0  0  0  0  0  0  0  0  0
    4.5130   -3.0570   25.2020 O   0  0  0  0  0  0  0  0  0  0  0  0
    6.3430   -3.0630   26.6000 N   0  0  0  0  0  0  0  0  0  0  0  0
    6.3820   -1.7320   27.2530 C   0  0  0  0  0  0  0  0  0  0  0  0
    7.0030   -1.6620   28.5730 C   0  0  0  0  0  0  0  0  0  0  0  0
    7.0690   -0.4080   29.2650 C   0  0  0  0  0  0  0  0  0  0  0  0
    6.5320    0.7000   28.6410 C   0  0  0  0  0  0  0  0  0  0  0  0
    5.9340    0.6470   27.3680 C   0  0  0  0  0  0  0  0  0  0  0  0
    5.8450   -0.5350   26.6590 C   0  0  0  0  0  0  0  0  0  0  0  0
    5.4970    2.0470   27.0710 C   0  0  0  0  0  0  0  0  0  0  0  0
    4.7030    2.3070   28.1530 C   0  0  0  0  0  0  0  0  0  0  0  0
    5.5000    2.3980   29.2950 C   0  0  0  0  0  0  0  0  0  0  0  0
    5.8900    3.7900   29.6050 C   0  0  0  0  0  0  0  0  0  0  0  0
    4.8980    1.7590   30.3640 C   0  0  0  0  0  0  0  0  0  0  0  0
    6.5700    1.7940   29.2190 O   0  0  0  0  0  0  0  0  0  0  0  0
    5.6790   -4.8370   23.3620 C   0  0  0  0  0  0  0  0  0  0  0  0
    6.4850   -5.3800   22.3440 C   0  0  0  0  0  0  0  0  0  0  0  0
  1  2  1  0
  2  3  2  0
  2  4  1  0
  4  5  1  0
  5  6  1  0
  6  7  1  0
  7  8  1  0
  8  9  2  0
  8 10  1  0
 10 11  1  0
 11 12  2  0
 12 13  1  0
 13 14  2  0
 14 15  1  0
 11 16  1  0
 15 16  2  0
 15 17  1  0
 17 18  1  0
 18 19  1  0
 19 20  1  0
 19 21  1  0
 14 22  1  0
 19 22  1  0
  7 23  1  0
  4 24  1  0
 23 24  1  0
M  END
