piperidine-amides-15263-covalent
     RDKit          3D

 18 18  0  0  0  0  0  0  0  0999 V2000
    7.1380   -3.2590   19.2630 C   0  0  0  0  0  0  0  0  0  0  0  0
    6.3340   -3.9970   20.2450 C   0  0  0  0  0  0  0  0  0  0  0  0
    5.2850   -4.5760   19.8960 O   0  0  0  0  0  0  0  0  0  0  0  0
    6.7590   -4.1040   21.5780 N   0  0  0  0  0  0  0  0  0  0  0  0
    7.6820   -3.1230   22.1300 C   0  0  0  0  0  0  0  0  0  0  0  0
    7.3850   -2.9760   23.6300 C   0  0  0  0  0  0  0  0  0  0  0  0
    5.9890   -3.5190   23.8170 C   0  0  0  0  0  0  0  0  0  0  0  0
    5.3740   -3.1080   25.0990 C   0  0  0  0  0  0  0  0  0  0  0  0
    4.2880   -2.4980   25.0560 O   0  0  0  0  0  0  0  0  0  0  0  0
    5.9830   -3.4050   26.3340 N   0  0  0  0  0  0  0  0  0  0  0  0
    6.2370   -4.7680   26.6420 C   0  0  2  0  0  0  0  0  0  0  0  0
    5.6100   -5.1160   27.9660 C   0  0  0  0  0  0  0  0  0  0  0  0
    5.0530   -6.3410   28.2140 C   0  0  0  0  0  0  0  0  0  0  0  0
    7.6260   -5.0350   26.6170 C   0  0  0  0  0  0  0  0  0  0  0  0
    8.1950   -4.7830   27.8410 C   0  0  0  0  0  0  0  0  0  0  0  0
    9.2070   -5.6230   28.0830 C   0  0  0  0  0  0  0  0  0  0  0  0
    6.0960   -5.0420   23.7190 C   0  0  0  0  0  0  0  0  0  0  0  0
    6.5810   -5.3300   22.3220 C   0  0  0  0  0  0  0  0  0  0  0  0
  1  2  1  0
  2  3  2  0
  2  4  1  0
  4  5  1  0
  5  6  1  0
  6  7  1  0
  7  8  1  0
  8  9  2  0
  8 10  1  0
 10 11  1  0
 11 12  1  1
 12 13  3  0
 11 14  1  0
 14 15  1  0
 15 16  1  0
  7 17  1  0
  4 18  1  0
 17 18  1  0
M  END
