piperidine-amides-31631-covalent
     RDKit          3D

 28 31  0  0  0  0  0  0  0  0999 V2000
    7.1060   -3.3530   19.4530 C   0  0  0  0  0  0  0  0  0  0  0  0
    6.4200   -4.2110   20.3930 C   0  0  0  0  0  0  0  0  0  0  0  0
    5.4060   -4.8640   19.9880 O   0  0  0  0  0  0  0  0  0  0  0  0
    6.8690   -4.3750   21.7230 N   0  0  0  0  0  0  0  0  0  0  0  0
    6.5450   -5.6340   22.4140 C   0  0  0  0  0  0  0  0  0  0  0  0
    5.4970   -5.0490   23.4250 C   0  0  0  0  0  0  0  0  0  0  0  0
    6.2600   -4.0520   24.2700 C   0  0  0  0  0  0  0  0  0  0  0  0
    5.2640   -3.4390   25.3640 C   0  0  0  0  0  0  0  0  0  0  0  0
    4.3060   -2.9510   24.7930 O   0  0  0  0  0  0  0  0  0  0  0  0
    5.6900   -3.5930   26.5670 N   0  0  0  0  0  0  0  0  0  0  0  0
    6.4280   -3.6790   27.6380 C   0  0  0  0  0  0  0  0  0  0  0  0
    5.9980   -3.6120   28.8470 C   0  0  1  0  0  0  0  0  0  0  0  0
    6.2680   -2.3130   29.3720 C   0  0  0  0  0  0  0  0  0  0  0  0
    7.6050   -1.9610   29.1580 O   0  0  0  0  0  0  0  0  0  0  0  0
    5.4110   -1.4910   29.9870 N   0  0  0  0  0  0  0  0  0  0  0  0
    6.1260   -0.4960   30.6390 C   0  0  0  0  0  0  0  0  0  0  0  0
    5.3660    0.7650   30.8120 C   0  0  0  0  0  0  0  0  0  0  0  0
    5.3710    0.0230   31.9630 C   0  0  0  0  0  0  0  0  0  0  0  0
    4.7070   -3.8240   28.6770 C   0  0  2  0  0  0  0  0  0  0  0  0
    4.0780   -5.1170   29.2200 C   0  0  0  0  0  0  0  0  0  0  0  0
    3.1910   -6.0780   28.4230 C   0  0  0  0  0  0  0  0  0  0  0  0
    2.8540   -7.0400   29.2430 N   0  0  0  0  0  0  0  0  0  0  0  0
    2.0320   -8.1950   29.0130 C   0  0  0  0  0  0  0  0  0  0  0  0
    3.4530   -6.7530   30.4440 C   0  0  0  0  0  0  0  0  0  0  0  0
    4.1930   -5.6050   30.4670 N   0  0  0  0  0  0  0  0  0  0  0  0
    4.3920   -3.6140   27.3210 C   0  0  0  0  0  0  0  0  0  0  0  0
    7.0730   -2.9930   23.5680 C   0  0  0  0  0  0  0  0  0  0  0  0
    7.7040   -3.4200   22.3950 C   0  0  0  0  0  0  0  0  0  0  0  0
  1  2  1  0
  2  3  2  0
  2  4  1  0
  4  5  1  0
  5  6  1  0
  6  7  1  0
  7  8  1  0
  8  9  2  0
  8 10  1  0
 10 11  1  0
 11 12  1  0
 12 13  1  6
 13 14  2  0
 13 15  1  0
 15 16  1  0
 16 17  1  0
 16 18  1  0
 17 18  1  0
 12 19  1  0
 19 20  1  6
 20 21  2  0
 21 22  1  0
 22 23  1  0
 22 24  1  0
 20 25  1  0
 24 25  2  0
 10 26  1  0
 19 26  1  0
  7 27  1  0
  4 28  1  0
 27 28  1  0
M  END
