piperidine-amides-34012-covalent
     RDKit          3D

 26 28  0  0  0  0  0  0  0  0999 V2000
    7.1210   -3.3170   19.2860 C   0  0  0  0  0  0  0  0  0  0  0  0
    6.4490   -4.1660   20.2760 C   0  0  0  0  0  0  0  0  0  0  0  0
    5.4010   -4.7880   19.9740 O   0  0  0  0  0  0  0  0  0  0  0  0
    7.0160   -4.3330   21.5480 N   0  0  0  0  0  0  0  0  0  0  0  0
    7.8110   -3.2560   22.0870 C   0  0  0  0  0  0  0  0  0  0  0  0
    6.9350   -2.6380   23.1570 C   0  0  0  0  0  0  0  0  0  0  0  0
    6.6530   -3.7510   24.1300 C   0  0  0  0  0  0  0  0  0  0  0  0
    5.8200   -3.1830   25.1910 C   0  0  0  0  0  0  0  0  0  0  0  0
    4.6400   -2.8800   24.9190 O   0  0  0  0  0  0  0  0  0  0  0  0
    6.3530   -3.0080   26.4760 N   0  0  0  0  0  0  0  0  0  0  0  0
    5.9360   -4.0070   27.4190 C   0  0  0  0  0  0  0  0  0  0  0  0
    6.3280   -3.6480   28.8140 C   0  0  0  0  0  0  0  0  0  0  0  0
    5.1580   -3.0110   29.4330 N   0  0  0  0  0  0  0  0  0  0  0  0
    4.8900   -1.7680   30.1340 C   0  0  0  0  0  0  0  0  0  0  0  0
    3.5510   -1.7250   30.4920 C   0  0  0  0  0  0  0  0  0  0  0  0
    2.9700   -2.8580   30.0580 N   0  0  0  0  0  0  0  0  0  0  0  0
    3.9630   -3.6750   29.3910 C   0  0  0  0  0  0  0  0  0  0  0  0
    6.3770   -1.6970   27.2100 C   0  0  0  0  0  0  0  0  0  0  0  0
    7.1410   -1.7230   28.5010 C   0  0  0  0  0  0  0  0  0  0  0  0
    6.9240   -0.2560   28.9170 C   0  0  0  0  0  0  0  0  0  0  0  0
    6.2640    1.0650   28.4950 C   0  0  0  0  0  0  0  0  0  0  0  0
    6.1890    2.8010   29.2970 Br  0  0  0  0  0  0  0  0  0  0  0  0
    5.6980    0.5530   27.2500 C   0  0  0  0  0  0  0  0  0  0  0  0
    5.7190   -0.6170   26.6620 N   0  0  0  0  0  0  0  0  0  0  0  0
    5.8850   -4.8780   23.4790 C   0  0  0  0  0  0  0  0  0  0  0  0
    6.5350   -5.3730   22.3820 C   0  0  0  0  0  0  0  0  0  0  0  0
  1  2  1  0
  2  3  2  0
  2  4  1  0
  4  5  1  0
  5  6  1  0
  6  7  1  0
  7  8  1  0
  8  9  2  0
  8 10  1  0
 10 11  1  0
 11 12  1  0
 12 13  1  0
 13 14  1  0
 14 15  2  0
 15 16  1  0
 13 17  1  0
 16 17  2  0
 10 18  1  0
 18 19  2  0
 19 20  1  0
 20 21  2  0
 21 22  1  0
 21 23  1  0
 18 24  1  0
 23 24  2  0
  7 25  1  0
  4 26  1  0
 25 26  1  0
M  END
