piperidine-amides-25229-covalent
     RDKit          3D

 25 28  0  0  0  0  0  0  0  0999 V2000
    7.1750   -4.0150   19.7240 C   0  0  0  0  0  0  0  0  0  0  0  0
    5.9300   -3.9680   20.3930 C   0  0  0  0  0  0  0  0  0  0  0  0
    4.9690   -4.0880   19.6540 O   0  0  0  0  0  0  0  0  0  0  0  0
    5.9520   -3.9080   21.7680 N   0  0  0  0  0  0  0  0  0  0  0  0
    6.0690   -5.1560   22.4780 C   0  0  0  0  0  0  0  0  0  0  0  0
    5.6060   -4.9480   23.8760 C   0  0  0  0  0  0  0  0  0  0  0  0
    6.5000   -3.8950   24.5150 C   0  0  0  0  0  0  0  0  0  0  0  0
    5.6510   -2.9450   25.2880 C   0  0  0  0  0  0  0  0  0  0  0  0
    4.7970   -2.2450   24.7430 O   0  0  0  0  0  0  0  0  0  0  0  0
    5.8420   -2.9170   26.6730 N   0  0  0  0  0  0  0  0  0  0  0  0
    4.7790   -2.3680   27.5080 C   0  0  0  0  0  0  0  0  0  0  0  0
    4.6310   -3.3910   28.5510 C   0  0  0  0  0  0  0  0  0  0  0  0
    5.6590   -4.1880   28.5160 C   0  0  0  0  0  0  0  0  0  0  0  0
    6.1810   -5.2340   29.2930 C   0  0  0  0  0  0  0  0  0  0  0  0
    7.3740   -5.7440   28.7690 C   0  0  0  0  0  0  0  0  0  0  0  0
    7.9480   -5.1840   27.5470 C   0  0  0  0  0  0  0  0  0  0  0  0
    8.9190   -5.9810   27.6460 N   0  0  0  0  0  0  0  0  0  0  0  0
    9.1870   -6.2570   26.4360 C   0  0  0  0  0  0  0  0  0  0  0  0
    9.9980   -5.3260   25.6880 C   0  0  0  0  0  0  0  0  0  0  0  0
   10.2530   -4.4490   26.7450 C   0  0  0  0  0  0  0  0  0  0  0  0
    9.8370   -5.0680   28.0590 C   0  0  0  0  0  0  0  0  0  0  0  0
    6.7990   -4.8920   28.2860 C   0  0  0  0  0  0  0  0  0  0  0  0
    6.5860   -3.9610   27.3040 C   0  0  0  0  0  0  0  0  0  0  0  0
    7.3470   -3.1700   23.4670 C   0  0  0  0  0  0  0  0  0  0  0  0
    6.6240   -2.7610   22.3650 C   0  0  0  0  0  0  0  0  0  0  0  0
  1  2  1  0
  2  3  2  0
  2  4  1  0
  4  5  1  0
  5  6  1  0
  6  7  1  0
  7  8  1  0
  8  9  2  0
  8 10  1  0
 10 11  1  0
 11 12  1  0
 12 13  1  0
 13 14  1  0
 14 15  2  0
 15 16  1  0
 16 17  1  0
 17 18  1  0
 18 19  1  0
 19 20  1  0
 17 21  1  0
 20 21  1  0
 16 22  2  0
 10 23  1  0
 13 23  2  0
 22 23  1  0
  7 24  1  0
  4 25  1  0
 24 25  1  0
M  END
