piperidine-amides-13748-covalent
     RDKit          3D

 27 29  0  0  0  0  0  0  0  0999 V2000
    7.3390   -3.0530   19.0460 C   0  0  0  0  0  0  0  0  0  0  0  0
    6.3720   -3.5730   20.0660 C   0  0  0  0  0  0  0  0  0  0  0  0
    5.2740   -3.9950   19.6790 O   0  0  0  0  0  0  0  0  0  0  0  0
    6.7620   -3.6460   21.4310 N   0  0  0  0  0  0  0  0  0  0  0  0
    7.5740   -2.6320   22.0570 C   0  0  0  0  0  0  0  0  0  0  0  0
    7.4260   -2.7970   23.5820 C   0  0  0  0  0  0  0  0  0  0  0  0
    5.9740   -3.0030   23.9190 C   0  0  0  0  0  0  0  0  0  0  0  0
    5.6900   -3.0360   25.3650 C   0  0  0  0  0  0  0  0  0  0  0  0
    4.5050   -2.8960   25.6940 O   0  0  0  0  0  0  0  0  0  0  0  0
    6.7220   -3.2200   26.2810 N   0  0  0  0  0  0  0  0  0  0  0  0
    7.7800   -4.1520   26.1810 C   0  0  0  0  0  0  0  0  0  0  0  0
    7.8050   -5.2730   25.3680 C   0  0  0  0  0  0  0  0  0  0  0  0
    8.9690   -5.8820   24.9040 C   0  0  0  0  0  0  0  0  0  0  0  0
    8.9500   -7.0100   24.1160 C   0  0  0  0  0  0  0  0  0  0  0  0
    7.7230   -7.7030   23.6750 C   0  0  0  0  0  0  0  0  0  0  0  0
    7.8570   -9.0180   22.8310 C   0  0  0  0  0  0  0  0  0  0  0  0
    8.9650   -8.9370   21.9360 N   0  0  0  0  0  0  0  0  0  0  0  0
    9.6710   -7.9710   22.0000 C   0  0  0  0  0  0  0  0  0  0  0  0
   10.5610   -8.3290   20.9790 C   0  0  0  0  0  0  0  0  0  0  0  0
   10.1210   -9.5040   19.7670 S   0  0  0  0  0  0  0  0  0  0  0  0
   11.0940  -10.5330   19.4360 O   0  0  0  0  0  0  0  0  0  0  0  0
    9.3810  -10.9600   20.0720 C   0  0  0  0  0  0  0  0  0  0  0  0
    9.6810   -9.4630   20.7860 C   0  0  0  0  0  0  0  0  0  0  0  0
    6.5220   -7.1710   24.0600 C   0  0  0  0  0  0  0  0  0  0  0  0
    6.5220   -5.9020   24.9480 C   0  0  0  0  0  0  0  0  0  0  0  0
    5.3630   -4.1920   23.2670 C   0  0  0  0  0  0  0  0  0  0  0  0
    6.3810   -4.7350   22.3000 C   0  0  0  0  0  0  0  0  0  0  0  0
  1  2  1  0
  2  3  2  0
  2  4  1  0
  4  5  1  0
  5  6  1  0
  6  7  1  0
  7  8  1  0
  8  9  2  0
  8 10  1  0
 10 11  1  0
 11 12  1  0
 12 13  2  0
 13 14  1  0
 14 15  2  0
 15 16  1  0
 16 17  1  0
 17 18  1  0
 18 19  1  0
 20 19  1  0
 20 21  2  0
 20 22  1  0
 17 23  1  0
 22 23  1  0
 15 24  1  0
 12 25  1  0
 24 25  2  0
  7 26  1  0
  4 27  1  0
 26 27  1  0
M  END
