piperidine-amides-11836-covalent
     RDKit          3D

 27 29  0  0  0  0  0  0  0  0999 V2000
    7.0950   -3.3220   19.3280 C   0  0  0  0  0  0  0  0  0  0  0  0
    6.3190   -4.1020   20.2870 C   0  0  0  0  0  0  0  0  0  0  0  0
    5.3030   -4.6960   19.9320 O   0  0  0  0  0  0  0  0  0  0  0  0
    6.7780   -4.2100   21.6400 N   0  0  0  0  0  0  0  0  0  0  0  0
    7.6650   -3.1960   22.1670 C   0  0  0  0  0  0  0  0  0  0  0  0
    7.5090   -3.0850   23.6490 C   0  0  0  0  0  0  0  0  0  0  0  0
    6.1260   -3.6020   23.9790 C   0  0  0  0  0  0  0  0  0  0  0  0
    5.8240   -3.3370   25.4050 C   0  0  0  0  0  0  0  0  0  0  0  0
    4.6930   -3.5130   25.8940 O   0  0  0  0  0  0  0  0  0  0  0  0
    6.8820   -2.8690   26.2170 N   0  0  0  0  0  0  0  0  0  0  0  0
    6.7090   -1.7090   27.0720 C   0  0  0  0  0  0  0  0  0  0  0  0
    7.3870   -1.6430   28.4090 C   0  0  0  0  0  0  0  0  0  0  0  0
    7.2460   -0.5590   29.2460 C   0  0  0  0  0  0  0  0  0  0  0  0
    6.4560    0.5400   28.8670 C   0  0  0  0  0  0  0  0  0  0  0  0
    5.7950    0.5660   27.6520 C   0  0  0  0  0  0  0  0  0  0  0  0
    5.8490   -0.5120   26.6790 C   0  0  0  0  0  0  0  0  0  0  0  0
    5.2020   -0.5440   25.4560 C   0  0  0  0  0  0  0  0  0  0  0  0
    4.1640    0.3250   25.5980 N   0  0  0  0  0  0  0  0  0  0  0  0
    4.4360    1.6680   25.1330 C   0  0  0  0  0  0  0  0  0  0  0  0
    3.7830    2.5000   26.0160 C   0  0  0  0  0  0  0  0  0  0  0  0
    3.1140    1.6790   27.0020 C   0  0  0  0  0  0  0  0  0  0  0  0
    3.3300    0.3250   26.7820 C   0  0  1  0  0  0  0  0  0  0  0  0
    2.1620   -0.4270   26.6690 C   0  0  0  0  0  0  0  0  0  0  0  0
    1.1390   -0.1080   27.4770 N   0  0  0  0  0  0  0  0  0  0  0  0
    2.0980   -1.3670   25.8320 O   0  0  0  0  0  0  0  0  0  0  0  0
    6.0280   -5.0900   23.7300 C   0  0  0  0  0  0  0  0  0  0  0  0
    6.6450   -5.4480   22.3660 C   0  0  0  0  0  0  0  0  0  0  0  0
  1  2  1  0
  2  3  2  0
  2  4  1  0
  4  5  1  0
  5  6  1  0
  6  7  1  0
  7  8  1  0
  8  9  2  0
  8 10  1  0
 10 11  1  0
 11 12  2  0
 12 13  1  0
 13 14  2  0
 14 15  1  0
 11 16  1  0
 15 16  2  0
 16 17  1  0
 17 18  1  0
 18 19  1  0
 19 20  1  0
 20 21  1  0
 18 22  1  0
 21 22  1  0
 22 23  1  6
 23 24  1  0
 23 25  2  0
  7 26  1  0
  4 27  1  0
 26 27  1  0
M  END
