piperidine-amides-11540-covalent
     RDKit          3D

 18 19  0  0  0  0  0  0  0  0999 V2000
    7.1120   -3.3160   19.2590 C   0  0  0  0  0  0  0  0  0  0  0  0
    6.3630   -4.0550   20.2750 C   0  0  0  0  0  0  0  0  0  0  0  0
    5.3360   -4.6690   19.9360 O   0  0  0  0  0  0  0  0  0  0  0  0
    6.8160   -4.1240   21.6050 N   0  0  0  0  0  0  0  0  0  0  0  0
    7.7170   -3.1130   22.1340 C   0  0  0  0  0  0  0  0  0  0  0  0
    7.3980   -2.9970   23.6000 C   0  0  0  0  0  0  0  0  0  0  0  0
    6.0670   -3.6070   23.8930 C   0  0  0  0  0  0  0  0  0  0  0  0
    5.5550   -3.3640   25.2660 C   0  0  0  0  0  0  0  0  0  0  0  0
    4.3350   -3.5760   25.5230 O   0  0  0  0  0  0  0  0  0  0  0  0
    6.3400   -2.8860   26.3350 N   0  0  0  0  0  0  0  0  0  0  0  0
    5.6810   -2.1860   27.4660 C   0  0  1  0  0  0  0  0  0  0  0  0
    6.2680   -2.6630   28.7130 C   0  0  0  0  0  0  0  0  0  0  0  0
    6.5460   -1.3170   28.9970 C   0  0  2  0  0  0  0  0  0  0  0  0
    6.1050   -0.6020   30.5320 S   0  0  0  0  0  0  0  0  0  0  0  0
    4.4720   -1.0240   31.0260 C   0  0  0  0  0  0  0  0  0  0  0  0
    5.8590   -0.7490   27.7740 C   0  0  0  0  0  0  0  0  0  0  0  0
    6.1250   -5.0720   23.6120 C   0  0  0  0  0  0  0  0  0  0  0  0
    6.5080   -5.3260   22.3170 C   0  0  0  0  0  0  0  0  0  0  0  0
  1  2  1  0
  2  3  2  0
  2  4  1  0
  4  5  1  0
  5  6  1  0
  6  7  1  0
  7  8  1  0
  8  9  2  0
  8 10  1  0
 11 10  1  6
 11 12  1  0
 12 13  1  0
 13 14  1  1
 14 15  1  0
 11 16  1  0
 13 16  1  0
  7 17  1  0
  4 18  1  0
 17 18  1  0
M  END
