piperidine-amides-33571-covalent
     RDKit          3D

 30 32  0  0  0  0  0  0  0  0999 V2000
    7.0930   -3.2850   19.2460 C   0  0  0  0  0  0  0  0  0  0  0  0
    6.3670   -4.0490   20.2820 C   0  0  0  0  0  0  0  0  0  0  0  0
    5.3030   -4.6010   19.9090 O   0  0  0  0  0  0  0  0  0  0  0  0
    6.8550   -4.2120   21.6110 N   0  0  0  0  0  0  0  0  0  0  0  0
    7.6560   -3.1880   22.2080 C   0  0  0  0  0  0  0  0  0  0  0  0
    7.3080   -2.9190   23.5990 C   0  0  0  0  0  0  0  0  0  0  0  0
    6.0810   -3.6200   24.0120 C   0  0  0  0  0  0  0  0  0  0  0  0
    5.5830   -3.3180   25.4050 C   0  0  0  0  0  0  0  0  0  0  0  0
    4.3730   -3.5090   25.6260 O   0  0  0  0  0  0  0  0  0  0  0  0
    6.3700   -2.8270   26.4760 N   0  0  0  0  0  0  0  0  0  0  0  0
    6.2170   -3.2870   27.8110 C   0  0  0  0  0  0  0  0  0  0  0  0
    6.0830   -2.3290   28.9120 C   0  0  0  0  0  0  0  0  0  0  0  0
    7.3090   -1.4610   29.2910 C   0  0  0  0  0  0  0  0  0  0  0  0
    7.3440   -0.5160   30.3070 C   0  0  0  0  0  0  0  0  0  0  0  0
    6.0290   -0.3780   31.0630 C   0  0  0  0  0  0  0  0  0  0  0  0
    5.9920    0.5710   32.1250 N   0  0  0  0  0  0  0  0  0  0  0  0
    4.5800    0.8020   32.4560 C   0  0  0  0  0  0  0  0  0  0  0  0
    6.9340    0.4010   33.0600 C   0  0  0  0  0  0  0  0  0  0  0  0
    4.8030   -1.1610   30.7710 C   0  0  0  0  0  0  0  0  0  0  0  0
    4.7750   -2.1880   29.6670 C   0  0  0  0  0  0  0  0  0  0  0  0
    6.8430   -1.4750   26.2590 C   0  0  0  0  0  0  0  0  0  0  0  0
    5.8180   -0.4150   26.0270 C   0  0  0  0  0  0  0  0  0  0  0  0
    5.0400   -0.1620   24.9540 C   0  0  0  0  0  0  0  0  0  0  0  0
    4.1770    0.9350   25.0900 N   0  0  0  0  0  0  0  0  0  0  0  0
    4.4070    1.4280   26.3280 N   0  0  0  0  0  0  0  0  0  0  0  0
    3.8080    2.4950   26.9170 C   0  0  0  0  0  0  0  0  0  0  0  0
    5.3680    0.6880   26.9580 C   0  0  0  0  0  0  0  0  0  0  0  0
    5.8780    0.8770   28.2350 C   0  0  0  0  0  0  0  0  0  0  0  0
    6.2840   -5.1060   23.8040 C   0  0  0  0  0  0  0  0  0  0  0  0
    6.5500   -5.4240   22.3360 C   0  0  0  0  0  0  0  0  0  0  0  0
  1  2  1  0
  2  3  2  0
  2  4  1  0
  4  5  1  0
  5  6  1  0
  6  7  1  0
  7  8  1  0
  8  9  2  0
  8 10  1  0
 10 11  1  0
 11 12  1  0
 12 13  2  0
 13 14  1  0
 14 15  2  0
 15 16  1  0
 16 17  1  0
 16 18  1  0
 15 19  1  0
 12 20  1  0
 19 20  2  0
 10 21  1  0
 21 22  1  0
 22 23  1  0
 23 24  2  0
 24 25  1  0
 25 26  1  0
 22 27  2  0
 25 27  1  0
 27 28  1  0
  7 29  1  0
  4 30  1  0
 29 30  1  0
M  END
