piperidine-amides-31917-covalent
     RDKit          3D

 28 30  0  0  0  0  0  0  0  0999 V2000
    7.1560   -3.3970   19.5000 C   0  0  0  0  0  0  0  0  0  0  0  0
    6.4510   -4.2380   20.4340 C   0  0  0  0  0  0  0  0  0  0  0  0
    5.4380   -4.8900   20.0060 O   0  0  0  0  0  0  0  0  0  0  0  0
    6.8940   -4.3850   21.7720 N   0  0  0  0  0  0  0  0  0  0  0  0
    6.5340   -5.5870   22.5260 C   0  0  0  0  0  0  0  0  0  0  0  0
    5.4550   -4.9330   23.4700 C   0  0  0  0  0  0  0  0  0  0  0  0
    6.0990   -3.8030   24.2740 C   0  0  0  0  0  0  0  0  0  0  0  0
    4.9510   -3.1300   25.1930 C   0  0  0  0  0  0  0  0  0  0  0  0
    4.0470   -2.7520   24.4780 O   0  0  0  0  0  0  0  0  0  0  0  0
    5.2210   -3.1340   26.4420 N   0  0  0  0  0  0  0  0  0  0  0  0
    5.2500   -2.8300   27.7620 C   0  0  0  0  0  0  0  0  0  0  0  0
    5.9320   -3.3080   28.8440 C   0  0  0  0  0  0  0  0  0  0  0  0
    6.1640   -4.7000   28.7480 C   0  0  0  0  0  0  0  0  0  0  0  0
    5.4340   -5.5850   29.4460 N   0  0  0  0  0  0  0  0  0  0  0  0
    5.5020   -6.8640   28.8930 N   0  0  0  0  0  0  0  0  0  0  0  0
    4.5270   -7.6310   29.4640 C   0  0  0  0  0  0  0  0  0  0  0  0
    3.6280   -6.6720   30.1250 C   0  0  0  0  0  0  0  0  0  0  0  0
    2.5750   -7.2990   30.8010 C   0  0  0  0  0  0  0  0  0  0  0  0
    1.5780   -7.7470   30.2020 O   0  0  0  0  0  0  0  0  0  0  0  0
    2.6280   -7.4360   32.2070 O   0  0  0  0  0  0  0  0  0  0  0  0
    3.3570   -8.3760   32.9140 C   0  0  0  0  0  0  0  0  0  0  0  0
    4.8240   -7.9450   32.7440 C   0  0  0  0  0  0  0  0  0  0  0  0
    4.1540   -5.3400   29.8900 C   0  0  0  0  0  0  0  0  0  0  0  0
    3.6930   -3.9950   30.0040 N   0  0  0  0  0  0  0  0  0  0  0  0
    5.9010   -5.1160   27.4560 C   0  0  0  0  0  0  0  0  0  0  0  0
    6.2090   -4.1210   26.5560 C   0  0  0  0  0  0  0  0  0  0  0  0
    6.9640   -2.7960   23.4960 C   0  0  0  0  0  0  0  0  0  0  0  0
    7.6630   -3.3840   22.4590 C   0  0  0  0  0  0  0  0  0  0  0  0
  1  2  1  0
  2  3  2  0
  2  4  1  0
  4  5  1  0
  5  6  1  0
  6  7  1  0
  7  8  1  0
  8  9  2  0
  8 10  1  0
 10 11  1  0
 11 12  1  0
 12 13  1  0
 13 14  1  0
 14 15  1  0
 15 16  1  0
 16 17  2  0
 17 18  1  0
 18 19  2  0
 18 20  1  0
 20 21  1  0
 21 22  1  0
 14 23  1  0
 17 23  1  0
 23 24  2  3
 13 25  1  0
 10 26  1  0
 25 26  1  0
  7 27  1  0
  4 28  1  0
 27 28  1  0
M  END
