piperidine-amides-1079-covalent
     RDKit          3D

 24 26  0  0  0  0  0  0  0  0999 V2000
    7.0720   -3.3370   19.3130 C   0  0  0  0  0  0  0  0  0  0  0  0
    6.3820   -4.1910   20.3170 C   0  0  0  0  0  0  0  0  0  0  0  0
    5.3690   -4.8240   19.9750 O   0  0  0  0  0  0  0  0  0  0  0  0
    6.9320   -4.2950   21.6120 N   0  0  0  0  0  0  0  0  0  0  0  0
    7.7240   -3.2500   22.2160 C   0  0  0  0  0  0  0  0  0  0  0  0
    6.8390   -2.5940   23.2720 C   0  0  0  0  0  0  0  0  0  0  0  0
    6.5330   -3.6460   24.2780 C   0  0  0  0  0  0  0  0  0  0  0  0
    5.6520   -3.1560   25.3690 C   0  0  0  0  0  0  0  0  0  0  0  0
    4.4470   -3.1040   25.1010 O   0  0  0  0  0  0  0  0  0  0  0  0
    6.1680   -2.7900   26.6210 N   0  0  0  0  0  0  0  0  0  0  0  0
    6.6500   -1.5130   27.0500 C   0  0  2  0  0  0  0  0  0  0  0  0
    7.1990   -1.4340   28.3180 C   0  0  0  0  0  0  0  0  0  0  0  0
    6.7290   -0.5680   29.2960 C   0  0  0  0  0  0  0  0  0  0  0  0
    6.2030    0.6070   28.8550 C   0  0  0  0  0  0  0  0  0  0  0  0
    5.6470    0.6450   27.4900 C   0  0  0  0  0  0  0  0  0  0  0  0
    4.8150    1.8670   27.0570 C   0  0  0  0  0  0  0  0  0  0  0  0
    4.2350    1.9140   25.6370 C   0  0  0  0  0  0  0  0  0  0  0  0
    3.5030    3.0490   25.3400 O   0  0  0  0  0  0  0  0  0  0  0  0
    2.4610    3.1240   26.2430 C   0  0  0  0  0  0  0  0  0  0  0  0
    4.5270    0.7570   24.7670 C   0  0  0  0  0  0  0  0  0  0  0  0
    5.3590   -0.3500   25.3610 C   0  0  0  0  0  0  0  0  0  0  0  0
    5.8800   -0.4080   26.6220 C   0  0  0  0  0  0  0  0  0  0  0  0
    5.8930   -4.8940   23.7280 C   0  0  0  0  0  0  0  0  0  0  0  0
    6.5820   -5.4000   22.4780 C   0  0  0  0  0  0  0  0  0  0  0  0
  1  2  1  0
  2  3  2  0
  2  4  1  0
  4  5  1  0
  5  6  1  0
  6  7  1  0
  7  8  1  0
  8  9  2  0
  8 10  1  0
 11 10  1  1
 11 12  1  0
 12 13  1  0
 13 14  1  0
 14 15  1  0
 15 16  2  0
 16 17  1  0
 17 18  1  0
 18 19  1  0
 17 20  2  0
 20 21  1  0
 11 22  1  0
 15 22  1  0
 21 22  2  0
  7 23  1  0
  4 24  1  0
 23 24  1  0
M  END
