piperidine-amides-4405-covalent
     RDKit          3D

 25 26  0  0  0  0  0  0  0  0999 V2000
    7.1350   -3.2860   19.2200 C   0  0  0  0  0  0  0  0  0  0  0  0
    6.4160   -4.0480   20.2500 C   0  0  0  0  0  0  0  0  0  0  0  0
    5.3250   -4.5650   19.9040 O   0  0  0  0  0  0  0  0  0  0  0  0
    6.9670   -4.2400   21.5440 N   0  0  0  0  0  0  0  0  0  0  0  0
    6.5580   -5.3760   22.2950 C   0  0  0  0  0  0  0  0  0  0  0  0
    6.0250   -5.0160   23.6040 C   0  0  0  0  0  0  0  0  0  0  0  0
    6.0860   -3.5690   23.8710 C   0  0  0  0  0  0  0  0  0  0  0  0
    5.5630   -3.2380   25.2280 C   0  0  0  0  0  0  0  0  0  0  0  0
    4.4740   -2.6470   25.3330 O   0  0  0  0  0  0  0  0  0  0  0  0
    6.2620   -3.5870   26.3820 N   0  0  0  0  0  0  0  0  0  0  0  0
    5.8130   -4.4050   27.4320 C   0  0  1  0  0  0  0  0  0  0  0  0
    6.1000   -5.8330   27.5290 C   0  0  0  0  0  0  0  0  0  0  0  0
    6.3390   -3.8580   28.7040 C   0  0  0  0  0  0  0  0  0  0  0  0
    5.7620   -2.7510   29.2880 C   0  0  0  0  0  0  0  0  0  0  0  0
    4.3250   -3.2560   29.3490 C   0  0  0  0  0  0  0  0  0  0  0  0
    3.2900   -2.3100   29.9650 C   0  0  0  0  0  0  0  0  0  0  0  0
    3.7100   -0.8870   30.5020 C   0  0  0  0  0  0  0  0  0  0  0  0
    2.8570    0.0760   31.0920 N   0  0  0  0  0  0  0  0  0  0  0  0
    2.7490   -0.2950   32.4400 C   0  0  0  0  0  0  0  0  0  0  0  0
    3.0670    1.3680   30.8410 C   0  0  0  0  0  0  0  0  0  0  0  0
    5.1400   -0.6240   30.3340 C   0  0  0  0  0  0  0  0  0  0  0  0
    6.1720   -1.4600   29.7680 C   0  0  0  0  0  0  0  0  0  0  0  0
    7.4810   -1.0140   29.7090 C   0  0  0  0  0  0  0  0  0  0  0  0
    7.4100   -2.9580   23.5930 C   0  0  0  0  0  0  0  0  0  0  0  0
    7.7550   -3.1840   22.1420 C   0  0  0  0  0  0  0  0  0  0  0  0
  1  2  1  0
  2  3  2  0
  2  4  1  0
  4  5  1  0
  5  6  1  0
  6  7  1  0
  7  8  1  0
  8  9  2  0
  8 10  1  0
 10 11  1  0
 11 12  1  6
 11 13  1  0
 13 14  1  0
 14 15  2  0
 15 16  1  0
 16 17  2  0
 17 18  1  0
 18 19  1  0
 18 20  1  0
 17 21  1  0
 14 22  1  0
 21 22  2  0
 22 23  1  0
  7 24  1  0
  4 25  1  0
 24 25  1  0
M  END
