piperidine-amides-8495-covalent
     RDKit          3D

 24 26  0  0  0  0  0  0  0  0999 V2000
    7.0570   -3.3550   19.3480 C   0  0  0  0  0  0  0  0  0  0  0  0
    6.4210   -4.2130   20.3480 C   0  0  0  0  0  0  0  0  0  0  0  0
    5.4090   -4.8500   19.9920 O   0  0  0  0  0  0  0  0  0  0  0  0
    6.9780   -4.3430   21.6530 N   0  0  0  0  0  0  0  0  0  0  0  0
    7.7620   -3.2780   22.2080 C   0  0  0  0  0  0  0  0  0  0  0  0
    7.0090   -2.6420   23.3280 C   0  0  0  0  0  0  0  0  0  0  0  0
    6.5410   -3.7430   24.2530 C   0  0  0  0  0  0  0  0  0  0  0  0
    5.5620   -3.1490   25.2250 C   0  0  0  0  0  0  0  0  0  0  0  0
    4.5220   -2.7260   24.7380 O   0  0  0  0  0  0  0  0  0  0  0  0
    5.8600   -3.1130   26.5820 N   0  0  0  0  0  0  0  0  0  0  0  0
    6.6750   -2.1190   27.1920 C   0  0  0  0  0  0  0  0  0  0  0  0
    7.1070   -1.0150   27.9650 C   0  0  0  0  0  0  0  0  0  0  0  0
    6.0860   -0.2990   28.7100 N   0  0  0  0  0  0  0  0  0  0  0  0
    4.9730   -0.8710   28.4730 N   0  0  0  0  0  0  0  0  0  0  0  0
    3.6860   -0.5160   29.0010 C   0  0  0  0  0  0  0  0  0  0  0  0
    3.5950   -0.9180   30.3240 C   0  0  0  0  0  0  0  0  0  0  0  0
    2.9070   -2.2360   30.3260 C   0  0  0  0  0  0  0  0  0  0  0  0
    2.7560   -2.7730   31.7340 C   0  0  0  0  0  0  0  0  0  0  0  0
    3.2100   -2.1050   32.8930 N   0  0  0  0  0  0  0  0  0  0  0  0
    3.8820   -0.8070   32.8220 C   0  0  0  0  0  0  0  0  0  0  0  0
    4.0890   -0.1690   31.4410 C   0  0  0  0  0  0  0  0  0  0  0  0
    5.2540   -1.8740   27.6370 C   0  0  0  0  0  0  0  0  0  0  0  0
    5.7590   -4.8030   23.4850 C   0  0  0  0  0  0  0  0  0  0  0  0
    6.5740   -5.3970   22.5410 C   0  0  0  0  0  0  0  0  0  0  0  0
  1  2  1  0
  2  3  2  0
  2  4  1  0
  4  5  1  0
  5  6  1  0
  6  7  1  0
  7  8  1  0
  8  9  2  0
  8 10  1  0
 10 11  1  0
 11 12  1  0
 12 13  2  0
 13 14  1  0
 14 15  1  0
 15 16  1  0
 16 17  2  0
 17 18  1  0
 18 19  2  0
 19 20  1  0
 16 21  1  0
 20 21  2  0
 11 22  2  0
 14 22  1  0
  7 23  1  0
  4 24  1  0
 23 24  1  0
M  END
