piperidine-amides-11095-covalent
     RDKit          3D

 21 23  0  0  0  0  0  0  0  0999 V2000
    7.1200   -3.2670   19.2010 C   0  0  0  0  0  0  0  0  0  0  0  0
    6.3570   -4.0100   20.2090 C   0  0  0  0  0  0  0  0  0  0  0  0
    5.2870   -4.5490   19.8850 O   0  0  0  0  0  0  0  0  0  0  0  0
    6.8390   -4.1650   21.5150 N   0  0  0  0  0  0  0  0  0  0  0  0
    7.6890   -3.1950   22.1650 C   0  0  0  0  0  0  0  0  0  0  0  0
    6.9150   -2.7190   23.3630 C   0  0  0  0  0  0  0  0  0  0  0  0
    6.4710   -3.8650   24.2190 C   0  0  0  0  0  0  0  0  0  0  0  0
    5.6920   -3.4140   25.3950 C   0  0  0  0  0  0  0  0  0  0  0  0
    4.4260   -3.4180   25.3620 O   0  0  0  0  0  0  0  0  0  0  0  0
    6.2900   -2.9510   26.5880 N   0  0  0  0  0  0  0  0  0  0  0  0
    6.5620   -1.5090   26.7300 C   0  0  0  0  0  0  0  0  0  0  0  0
    6.5180   -1.1440   28.1650 C   0  0  0  0  0  0  0  0  0  0  0  0
    7.5870   -1.1200   29.1610 C   0  0  0  0  0  0  0  0  0  0  0  0
    7.0050   -0.6020   30.6770 S   0  0  0  0  0  0  0  0  0  0  0  0
    5.3470   -0.3970   30.1300 C   0  0  0  0  0  0  0  0  0  0  0  0
    4.3140    0.0740   31.1400 C   0  0  0  0  0  0  0  0  0  0  0  0
    4.8900    0.1470   32.3450 C   0  0  0  0  0  0  0  0  0  0  0  0
    4.6180    1.4670   31.9110 C   0  0  0  0  0  0  0  0  0  0  0  0
    5.3240   -0.7530   28.7120 N   0  0  0  0  0  0  0  0  0  0  0  0
    5.6650   -4.8820   23.4430 C   0  0  0  0  0  0  0  0  0  0  0  0
    6.5000   -5.3480   22.2730 C   0  0  0  0  0  0  0  0  0  0  0  0
  1  2  1  0
  2  3  2  0
  2  4  1  0
  4  5  1  0
  5  6  1  0
  6  7  1  0
  7  8  1  0
  8  9  2  0
  8 10  1  0
 10 11  1  0
 11 12  1  0
 12 13  2  0
 13 14  1  0
 14 15  1  0
 15 16  1  0
 16 17  1  0
 16 18  1  0
 17 18  1  0
 12 19  1  0
 15 19  2  0
  7 20  1  0
  4 21  1  0
 20 21  1  0
M  END
