piperidine-amides-584-covalent
     RDKit          3D

 26 28  0  0  0  0  0  0  0  0999 V2000
    7.0690   -3.3720   19.2830 C   0  0  0  0  0  0  0  0  0  0  0  0
    6.3910   -4.1200   20.3120 C   0  0  0  0  0  0  0  0  0  0  0  0
    5.3550   -4.7690   19.9720 O   0  0  0  0  0  0  0  0  0  0  0  0
    6.8610   -4.2080   21.6380 N   0  0  0  0  0  0  0  0  0  0  0  0
    7.5710   -3.0280   22.2100 C   0  0  0  0  0  0  0  0  0  0  0  0
    7.5380   -3.2970   23.7700 C   0  0  0  0  0  0  0  0  0  0  0  0
    6.1340   -3.7540   24.0750 C   0  0  0  0  0  0  0  0  0  0  0  0
    5.8040   -3.8230   25.6290 C   0  0  0  0  0  0  0  0  0  0  0  0
    5.5790   -4.9720   25.9340 O   0  0  0  0  0  0  0  0  0  0  0  0
    5.8240   -2.6820   26.1780 N   0  0  0  0  0  0  0  0  0  0  0  0
    5.7510   -1.5120   26.8680 C   0  0  2  0  0  0  0  0  0  0  0  0
    5.8630   -0.1720   26.7220 C   0  0  0  0  0  0  0  0  0  0  0  0
    5.3390    0.5010   27.8370 C   0  0  0  0  0  0  0  0  0  0  0  0
    6.3410    0.9430   28.8250 C   0  0  0  0  0  0  0  0  0  0  0  0
    6.8490   -0.4950   29.1110 C   0  0  1  0  0  0  0  0  0  0  0  0
    5.8340   -0.7930   30.0360 C   0  0  0  0  0  0  0  0  0  0  0  0
    5.0460   -1.9460   29.6420 C   0  0  0  0  0  0  0  0  0  0  0  0
    4.0800   -1.9650   30.8490 C   0  0  0  0  0  0  0  0  0  0  0  0
    4.0340   -1.0160   32.0620 C   0  0  0  0  0  0  0  0  0  0  0  0
    3.0700   -1.2080   33.0550 F   0  0  0  0  0  0  0  0  0  0  0  0
    4.9070   -0.0270   32.1530 C   0  0  0  0  0  0  0  0  0  0  0  0
    4.8680    0.8320   33.2500 F   0  0  0  0  0  0  0  0  0  0  0  0
    5.7930    0.0710   31.1420 C   0  0  0  0  0  0  0  0  0  0  0  0
    6.9020   -1.4370   27.8970 C   0  0  0  0  0  0  0  0  0  0  0  0
    5.7060   -5.0120   23.3950 C   0  0  0  0  0  0  0  0  0  0  0  0
    6.6300   -5.3740   22.4320 C   0  0  0  0  0  0  0  0  0  0  0  0
  1  2  1  0
  2  3  2  0
  2  4  1  0
  4  5  1  0
  5  6  1  0
  6  7  1  0
  7  8  1  0
  8  9  2  0
  8 10  1  0
 11 10  1  6
 11 12  1  0
 12 13  1  0
 13 14  1  0
 14 15  1  0
 15 16  1  1
 16 17  2  0
 17 18  1  0
 18 19  2  0
 19 20  1  0
 19 21  1  0
 21 22  1  0
 16 23  1  0
 21 23  2  0
 11 24  1  0
 15 24  1  0
  7 25  1  0
  4 26  1  0
 25 26  1  0
M  END
