piperidine-amides-35328-covalent
     RDKit          3D

 32 34  0  0  0  0  0  0  0  0999 V2000
    7.0090   -3.3380   19.3820 C   0  0  0  0  0  0  0  0  0  0  0  0
    6.3670   -4.2190   20.3950 C   0  0  0  0  0  0  0  0  0  0  0  0
    5.4160   -4.8980   19.9970 O   0  0  0  0  0  0  0  0  0  0  0  0
    6.8570   -4.2860   21.7150 N   0  0  0  0  0  0  0  0  0  0  0  0
    7.6360   -3.2100   22.2930 C   0  0  0  0  0  0  0  0  0  0  0  0
    7.2830   -3.0140   23.7500 C   0  0  0  0  0  0  0  0  0  0  0  0
    5.9930   -3.7780   24.0780 C   0  0  0  0  0  0  0  0  0  0  0  0
    5.4520   -3.4680   25.4440 C   0  0  0  0  0  0  0  0  0  0  0  0
    4.2490   -3.1820   25.4970 O   0  0  0  0  0  0  0  0  0  0  0  0
    6.1680   -3.4450   26.6790 N   0  0  0  0  0  0  0  0  0  0  0  0
    6.2650   -2.0840   27.2260 C   0  0  0  0  0  0  0  0  0  0  0  0
    6.9570   -1.9430   28.5670 C   0  0  0  0  0  0  0  0  0  0  0  0
    7.1300   -0.7410   29.2310 C   0  0  0  0  0  0  0  0  0  0  0  0
    6.6490    0.4020   28.6510 C   0  0  0  0  0  0  0  0  0  0  0  0
    6.0200    0.3560   27.4430 C   0  0  0  0  0  0  0  0  0  0  0  0
    5.8000   -0.9130   26.6690 C   0  0  0  0  0  0  0  0  0  0  0  0
    6.0550   -4.6240   27.5560 C   0  0  0  0  0  0  0  0  0  0  0  0
    4.6810   -5.1350   27.7630 N   0  0  0  0  0  0  0  0  0  0  0  0
    4.6720   -6.3300   28.6240 C   0  0  0  0  0  0  0  0  0  0  0  0
    3.4510   -7.0940   29.0420 C   0  0  0  0  0  0  0  0  0  0  0  0
    2.7430   -7.8020   28.1110 F   0  0  0  0  0  0  0  0  0  0  0  0
    2.5800   -6.1440   29.5450 F   0  0  0  0  0  0  0  0  0  0  0  0
    3.7900   -8.0010   29.9960 F   0  0  0  0  0  0  0  0  0  0  0  0
    6.0540   -6.7930   29.1100 C   0  0  0  0  0  0  0  0  0  0  0  0
    6.2310   -8.0570   30.0110 C   0  0  0  0  0  0  0  0  0  0  0  0
    5.8430   -7.8370   31.3310 O   0  0  0  0  0  0  0  0  0  0  0  0
    6.7490   -9.2770   29.5560 O   0  0  0  0  0  0  0  0  0  0  0  0
    7.8320  -10.1540   30.0840 C   0  0  0  0  0  0  0  0  0  0  0  0
    8.5510  -11.1930   29.3140 C   0  0  0  0  0  0  0  0  0  0  0  0
    7.1160   -5.6300   28.4390 S   0  0  0  0  0  0  0  0  0  0  0  0
    6.2210   -5.2510   23.8580 C   0  0  0  0  0  0  0  0  0  0  0  0
    6.6400   -5.5170   22.4300 C   0  0  0  0  0  0  0  0  0  0  0  0
  1  2  1  0
  2  3  2  0
  2  4  1  0
  4  5  1  0
  5  6  1  0
  6  7  1  0
  7  8  1  0
  8  9  2  0
  8 10  1  0
 10 11  1  0
 11 12  2  0
 12 13  1  0
 13 14  2  0
 14 15  1  0
 11 16  1  0
 15 16  2  0
 10 17  1  0
 17 18  2  0
 18 19  1  0
 19 20  1  0
 20 21  1  0
 20 22  1  0
 20 23  1  0
 19 24  2  0
 24 25  1  0
 25 26  2  0
 25 27  1  0
 27 28  1  0
 28 29  1  0
 17 30  1  0
 24 30  1  0
  7 31  1  0
  4 32  1  0
 31 32  1  0
M  END
