piperidine-amides-51-covalent
     RDKit          3D

 22 23  0  0  0  0  0  0  0  0999 V2000
    7.1480   -3.3410   19.4140 C   0  0  0  0  0  0  0  0  0  0  0  0
    6.4650   -4.1740   20.3720 C   0  0  0  0  0  0  0  0  0  0  0  0
    5.4370   -4.8290   19.9890 O   0  0  0  0  0  0  0  0  0  0  0  0
    6.9490   -4.3090   21.6900 N   0  0  0  0  0  0  0  0  0  0  0  0
    7.7410   -3.2040   22.2580 C   0  0  0  0  0  0  0  0  0  0  0  0
    6.6830   -2.6570   23.2830 C   0  0  0  0  0  0  0  0  0  0  0  0
    6.3860   -3.8090   24.2160 C   0  0  0  0  0  0  0  0  0  0  0  0
    5.4850   -3.3590   25.4590 C   0  0  0  0  0  0  0  0  0  0  0  0
    4.4190   -3.9680   25.3990 O   0  0  0  0  0  0  0  0  0  0  0  0
    6.0170   -2.4790   26.2340 N   0  0  0  0  0  0  0  0  0  0  0  0
    6.3370   -1.5510   27.1930 C   0  0  1  0  0  0  0  0  0  0  0  0
    7.3010   -1.2540   28.1190 C   0  0  0  0  0  0  0  0  0  0  0  0
    6.7890   -0.3220   29.0150 C   0  0  0  0  0  0  0  0  0  0  0  0
    6.3640    1.0030   28.5970 C   0  0  0  0  0  0  0  0  0  0  0  0
    6.6800    0.9740   27.0870 C   0  0  0  0  0  0  0  0  0  0  0  0
    5.8390   -0.1260   26.8120 C   0  0  1  0  0  0  0  0  0  0  0  0
    5.4050   -0.0460   25.4770 C   0  0  0  0  0  0  0  0  0  0  0  0
    6.4480    0.0490   24.6110 O   0  0  0  0  0  0  0  0  0  0  0  0
    4.0910   -0.0330   25.0300 O   0  0  0  0  0  0  0  0  0  0  0  0
    3.6500    0.8080   23.9720 C   0  0  0  0  0  0  0  0  0  0  0  0
    5.8630   -5.0390   23.5110 C   0  0  0  0  0  0  0  0  0  0  0  0
    6.6800   -5.4520   22.4920 C   0  0  0  0  0  0  0  0  0  0  0  0
  1  2  1  0
  2  3  2  0
  2  4  1  0
  4  5  1  0
  5  6  1  0
  6  7  1  0
  7  8  1  0
  8  9  2  0
  8 10  1  0
 11 10  1  6
 11 12  1  0
 12 13  1  0
 13 14  2  0
 14 15  1  0
 11 16  1  0
 15 16  1  0
 16 17  1  6
 17 18  2  0
 17 19  1  0
 19 20  1  0
  7 21  1  0
  4 22  1  0
 21 22  1  0
M  END
