piperidine-amides-24978-covalent
     RDKit          3D

 25 27  0  0  0  0  0  0  0  0999 V2000
    7.1280   -3.3540   19.3710 C   0  0  0  0  0  0  0  0  0  0  0  0
    6.4120   -4.2120   20.3190 C   0  0  0  0  0  0  0  0  0  0  0  0
    5.3570   -4.7890   19.9740 O   0  0  0  0  0  0  0  0  0  0  0  0
    6.9540   -4.4380   21.5880 N   0  0  0  0  0  0  0  0  0  0  0  0
    6.5350   -5.5980   22.3190 C   0  0  0  0  0  0  0  0  0  0  0  0
    5.5190   -5.0600   23.3190 C   0  0  0  0  0  0  0  0  0  0  0  0
    6.2590   -4.1230   24.2520 C   0  0  0  0  0  0  0  0  0  0  0  0
    5.2760   -3.5620   25.2030 C   0  0  0  0  0  0  0  0  0  0  0  0
    4.3190   -2.9260   24.7320 O   0  0  0  0  0  0  0  0  0  0  0  0
    5.4220   -3.7380   26.5890 N   0  0  0  0  0  0  0  0  0  0  0  0
    6.4850   -3.0940   27.1870 C   0  0  0  0  0  0  0  0  0  0  0  0
    6.7740   -3.9830   28.3690 C   0  0  0  0  0  0  0  0  0  0  0  0
    5.7620   -4.0110   29.1980 C   0  0  0  0  0  0  0  0  0  0  0  0
    5.5170   -2.7790   29.7670 C   0  0  0  0  0  0  0  0  0  0  0  0
    4.3350   -2.4880   30.5010 C   0  0  0  0  0  0  0  0  0  0  0  0
    4.0400   -1.2930   31.0890 C   0  0  0  0  0  0  0  0  0  0  0  0
    5.0950   -0.2860   30.8890 C   0  0  0  0  0  0  0  0  0  0  0  0
    4.2080    0.6330   31.6950 C   0  0  0  0  0  0  0  0  0  0  0  0
    4.7750    2.0000   31.6950 N   0  0  0  0  0  0  0  0  0  0  0  0
    6.3360   -0.4020   30.1820 C   0  0  0  0  0  0  0  0  0  0  0  0
    6.4980   -1.7560   29.6080 C   0  0  0  0  0  0  0  0  0  0  0  0
    4.4740   -4.4930   28.6300 C   0  0  0  0  0  0  0  0  0  0  0  0
    4.2550   -3.8450   27.4350 C   0  0  0  0  0  0  0  0  0  0  0  0
    6.9400   -2.9570   23.5410 C   0  0  0  0  0  0  0  0  0  0  0  0
    7.6430   -3.3760   22.2740 C   0  0  0  0  0  0  0  0  0  0  0  0
  1  2  1  0
  2  3  2  0
  2  4  1  0
  4  5  1  0
  5  6  1  0
  6  7  1  0
  7  8  1  0
  8  9  2  0
  8 10  1  0
 10 11  1  0
 11 12  1  0
 12 13  1  0
 13 14  1  0
 14 15  2  0
 15 16  1  0
 16 17  2  0
 17 18  1  0
 18 19  3  0
 17 20  1  0
 14 21  1  0
 20 21  2  0
 13 22  1  0
 10 23  1  0
 22 23  1  0
  7 24  1  0
  4 25  1  0
 24 25  1  0
M  END
