piperidine-amides-33951-covalent
     RDKit          3D

 29 31  0  0  0  0  0  0  0  0999 V2000
    7.1200   -3.3300   19.3070 C   0  0  0  0  0  0  0  0  0  0  0  0
    6.4180   -4.1660   20.2840 C   0  0  0  0  0  0  0  0  0  0  0  0
    5.3760   -4.7840   19.9680 O   0  0  0  0  0  0  0  0  0  0  0  0
    6.9550   -4.3170   21.5640 N   0  0  0  0  0  0  0  0  0  0  0  0
    6.5870   -5.4640   22.3440 C   0  0  0  0  0  0  0  0  0  0  0  0
    5.7070   -4.9100   23.4630 C   0  0  0  0  0  0  0  0  0  0  0  0
    6.5100   -3.8590   24.2160 C   0  0  0  0  0  0  0  0  0  0  0  0
    5.6500   -3.3220   25.2790 C   0  0  0  0  0  0  0  0  0  0  0  0
    4.4290   -3.2450   25.0340 O   0  0  0  0  0  0  0  0  0  0  0  0
    6.1560   -2.9160   26.5320 N   0  0  0  0  0  0  0  0  0  0  0  0
    5.3780   -3.3860   27.6610 C   0  0  0  0  0  0  0  0  0  0  0  0
    4.6210   -2.3020   28.4100 C   0  0  0  0  0  0  0  0  0  0  0  0
    3.8510   -2.6640   29.4850 C   0  0  0  0  0  0  0  0  0  0  0  0
    2.9120   -1.5170   30.4500 Cl  0  0  0  0  0  0  0  0  0  0  0  0
    3.8080   -4.0350   29.8360 N   0  0  0  0  0  0  0  0  0  0  0  0
    4.5340   -4.9970   29.1030 C   0  0  0  0  0  0  0  0  0  0  0  0
    5.2820   -4.6570   28.0520 N   0  0  0  0  0  0  0  0  0  0  0  0
    6.2760   -1.5960   27.1470 C   0  0  0  0  0  0  0  0  0  0  0  0
    6.8970   -1.7210   28.3710 C   0  0  0  0  0  0  0  0  0  0  0  0
    7.2570   -0.6680   29.4270 C   0  0  0  0  0  0  0  0  0  0  0  0
    6.7140    0.5710   28.7000 C   0  0  0  0  0  0  0  0  0  0  0  0
    6.8650    1.6430   29.3400 O   0  0  0  0  0  0  0  0  0  0  0  0
    5.6160    2.2510   29.5520 C   0  0  0  0  0  0  0  0  0  0  0  0
    6.0320    0.7150   27.3460 C   0  0  0  0  0  0  0  0  0  0  0  0
    5.8490   -0.4270   26.6180 C   0  0  0  0  0  0  0  0  0  0  0  0
    5.3240   -0.5510   25.5020 O   0  0  0  0  0  0  0  0  0  0  0  0
    4.5250    0.3730   24.8430 C   0  0  0  0  0  0  0  0  0  0  0  0
    6.9300   -2.7020   23.3370 C   0  0  0  0  0  0  0  0  0  0  0  0
    7.6910   -3.2370   22.1580 C   0  0  0  0  0  0  0  0  0  0  0  0
  1  2  1  0
  2  3  2  0
  2  4  1  0
  4  5  1  0
  5  6  1  0
  6  7  1  0
  7  8  1  0
  8  9  2  0
  8 10  1  0
 10 11  1  0
 11 12  2  0
 12 13  1  0
 13 14  1  0
 13 15  2  0
 15 16  1  0
 11 17  1  0
 16 17  2  0
 10 18  1  0
 18 19  2  0
 19 20  1  0
 20 21  2  0
 21 22  1  0
 22 23  1  0
 21 24  1  0
 18 25  1  0
 24 25  2  0
 25 26  1  0
 26 27  1  0
  7 28  1  0
  4 29  1  0
 28 29  1  0
M  END
