piperidine-amides-7004-covalent
     RDKit          3D

 22 23  0  0  0  0  0  0  0  0999 V2000
    7.0580   -3.2770   19.3060 C   0  0  0  0  0  0  0  0  0  0  0  0
    6.3480   -4.0930   20.3050 C   0  0  0  0  0  0  0  0  0  0  0  0
    5.3630   -4.7810   19.9620 O   0  0  0  0  0  0  0  0  0  0  0  0
    6.7730   -4.1450   21.6450 N   0  0  0  0  0  0  0  0  0  0  0  0
    7.6380   -3.1050   22.1800 C   0  0  0  0  0  0  0  0  0  0  0  0
    7.0670   -2.6240   23.5280 C   0  0  0  0  0  0  0  0  0  0  0  0
    5.8840   -3.5150   23.8570 C   0  0  0  0  0  0  0  0  0  0  0  0
    5.2850   -3.2140   25.1910 C   0  0  0  0  0  0  0  0  0  0  0  0
    4.0500   -3.3690   25.2990 O   0  0  0  0  0  0  0  0  0  0  0  0
    6.0360   -2.7530   26.3110 N   0  0  0  0  0  0  0  0  0  0  0  0
    6.4420   -3.6510   27.3600 C   0  0  1  0  0  0  0  0  0  0  0  0
    5.3190   -4.5970   27.7260 C   0  0  0  0  0  0  0  0  0  0  0  0
    5.2550   -5.5930   26.7220 O   0  0  0  0  0  0  0  0  0  0  0  0
    4.5830   -6.7740   26.8640 C   0  0  0  0  0  0  0  0  0  0  0  0
    7.5820   -4.3620   26.9390 C   0  0  0  0  0  0  0  0  0  0  0  0
    8.1700   -3.8800   25.7850 C   0  0  0  0  0  0  0  0  0  0  0  0
    9.2430   -4.5060   25.3200 C   0  0  0  0  0  0  0  0  0  0  0  0
    9.7880   -5.6860   26.0300 C   0  0  0  0  0  0  0  0  0  0  0  0
    9.1800   -6.0930   27.1260 N   0  0  0  0  0  0  0  0  0  0  0  0
    8.0420   -5.4490   27.6390 C   0  0  0  0  0  0  0  0  0  0  0  0
    6.1510   -4.9640   23.7500 C   0  0  0  0  0  0  0  0  0  0  0  0
    6.5750   -5.3320   22.4010 C   0  0  0  0  0  0  0  0  0  0  0  0
  1  2  1  0
  2  3  2  0
  2  4  1  0
  4  5  1  0
  5  6  1  0
  6  7  1  0
  7  8  1  0
  8  9  2  0
  8 10  1  0
 10 11  1  0
 11 12  1  6
 12 13  1  0
 13 14  1  0
 11 15  1  0
 15 16  2  0
 16 17  1  0
 17 18  2  0
 18 19  1  0
 15 20  1  0
 19 20  2  0
  7 21  1  0
  4 22  1  0
 21 22  1  0
M  END
