piperidine-amides-27294-covalent
     RDKit          3D

 25 26  0  0  0  0  0  0  0  0999 V2000
    6.9790   -3.3680   19.4460 C   0  0  0  0  0  0  0  0  0  0  0  0
    6.3570   -4.2530   20.4420 C   0  0  0  0  0  0  0  0  0  0  0  0
    5.4130   -4.9690   20.0090 O   0  0  0  0  0  0  0  0  0  0  0  0
    6.8190   -4.3130   21.7750 N   0  0  0  0  0  0  0  0  0  0  0  0
    6.6100   -5.5030   22.5750 C   0  0  0  0  0  0  0  0  0  0  0  0
    5.8820   -5.0900   23.8290 C   0  0  0  0  0  0  0  0  0  0  0  0
    5.8100   -3.5920   23.9050 C   0  0  0  0  0  0  0  0  0  0  0  0
    5.1470   -3.0190   25.1420 C   0  0  0  0  0  0  0  0  0  0  0  0
    4.6090   -1.9100   24.9990 O   0  0  0  0  0  0  0  0  0  0  0  0
    5.0520   -3.5800   26.4490 N   0  0  0  0  0  0  0  0  0  0  0  0
    6.2040   -4.2460   26.8630 C   0  0  0  0  0  0  0  0  0  0  0  0
    6.1640   -4.6320   28.2860 C   0  0  0  0  0  0  0  0  0  0  0  0
    5.1080   -4.0380   28.7640 C   0  0  2  0  0  0  0  0  0  0  0  0
    4.1250   -4.8530   29.2510 N   0  0  0  0  0  0  0  0  0  0  0  0
    3.5910   -4.6560   30.4700 C   0  0  0  0  0  0  0  0  0  0  0  0
    3.4610   -5.4630   28.2660 C   0  0  0  0  0  0  0  0  0  0  0  0
    2.1160   -5.7140   28.4520 O   0  0  0  0  0  0  0  0  0  0  0  0
    4.0390   -5.8540   27.0640 O   0  0  0  0  0  0  0  0  0  0  0  0
    3.2550   -6.3020   25.9930 C   0  0  0  0  0  0  0  0  0  0  0  0
    3.9340   -7.0140   25.0300 C   0  0  0  0  0  0  0  0  0  0  0  0
    2.8480   -7.7600   25.6990 C   0  0  0  0  0  0  0  0  0  0  0  0
    2.3430   -5.2490   25.4330 C   0  0  0  0  0  0  0  0  0  0  0  0
    4.6540   -3.1120   27.8240 C   0  0  0  0  0  0  0  0  0  0  0  0
    7.1820   -3.0060   23.6890 C   0  0  0  0  0  0  0  0  0  0  0  0
    7.6310   -3.2420   22.3910 C   0  0  0  0  0  0  0  0  0  0  0  0
  1  2  1  0
  2  3  2  0
  2  4  1  0
  4  5  1  0
  5  6  1  0
  6  7  1  0
  7  8  1  0
  8  9  2  0
  8 10  1  0
 10 11  1  0
 11 12  1  0
 12 13  1  0
 13 14  1  6
 14 15  1  0
 14 16  1  0
 16 17  2  0
 16 18  1  0
 19 18  1  0
 19 20  1  0
 19 21  1  0
 19 22  1  0
 10 23  1  0
 13 23  1  0
  7 24  1  0
  4 25  1  0
 24 25  1  0
M  END
