piperidine-amides-12156-covalent
     RDKit          3D

 25 27  0  0  0  0  0  0  0  0999 V2000
    7.0940   -3.2920   19.2350 C   0  0  0  0  0  0  0  0  0  0  0  0
    6.2820   -4.0050   20.2100 C   0  0  0  0  0  0  0  0  0  0  0  0
    5.2200   -4.5190   19.8660 O   0  0  0  0  0  0  0  0  0  0  0  0
    6.7350   -4.1700   21.5530 N   0  0  0  0  0  0  0  0  0  0  0  0
    6.4030   -5.3600   22.2780 C   0  0  0  0  0  0  0  0  0  0  0  0
    5.7830   -5.0180   23.6080 C   0  0  0  0  0  0  0  0  0  0  0  0
    5.5790   -3.5060   23.7180 C   0  0  0  0  0  0  0  0  0  0  0  0
    4.9640   -3.1870   25.0540 C   0  0  0  0  0  0  0  0  0  0  0  0
    4.4300   -4.0730   25.7410 O   0  0  0  0  0  0  0  0  0  0  0  0
    4.9440   -1.8630   25.5730 N   0  0  0  0  0  0  0  0  0  0  0  0
    5.9010   -1.5510   26.5930 C   0  0  1  0  0  0  0  0  0  0  0  0
    5.8850   -2.7090   27.6090 C   0  0  0  0  0  0  0  0  0  0  0  0
    7.1310   -1.6860   25.8820 C   0  0  0  0  0  0  0  0  0  0  0  0
    7.8720   -0.8230   25.0180 C   0  0  0  0  0  0  0  0  0  0  0  0
    9.0680   -1.2750   24.4350 C   0  0  0  0  0  0  0  0  0  0  0  0
    9.4870   -2.6230   24.7620 C   0  0  0  0  0  0  0  0  0  0  0  0
    8.7180   -3.3450   25.5960 C   0  0  0  0  0  0  0  0  0  0  0  0
    8.9040   -4.5330   26.0370 N   0  0  0  0  0  0  0  0  0  0  0  0
    9.8970   -5.5190   25.8370 C   0  0  0  0  0  0  0  0  0  0  0  0
    9.5540   -6.5660   26.5860 C   0  0  0  0  0  0  0  0  0  0  0  0
    8.3720   -6.1880   27.2440 C   0  0  0  0  0  0  0  0  0  0  0  0
    7.9760   -4.9780   26.9160 N   0  0  0  0  0  0  0  0  0  0  0  0
    7.6260   -2.8650   26.0930 C   0  0  0  0  0  0  0  0  0  0  0  0
    6.8780   -2.7850   23.5040 C   0  0  0  0  0  0  0  0  0  0  0  0
    7.4410   -3.1030   22.1670 C   0  0  0  0  0  0  0  0  0  0  0  0
  1  2  1  0
  2  3  2  0
  2  4  1  0
  4  5  1  0
  5  6  1  0
  6  7  1  0
  7  8  1  0
  8  9  2  0
  8 10  1  0
 10 11  1  0
 11 12  1  1
 11 13  1  0
 13 14  2  0
 14 15  1  0
 15 16  2  0
 16 17  1  0
 17 18  1  0
 18 19  1  0
 19 20  2  0
 20 21  1  0
 18 22  1  0
 21 22  2  0
 13 23  1  0
 17 23  2  0
  7 24  1  0
  4 25  1  0
 24 25  1  0
M  END
