piperidine-amides-10244-covalent
     RDKit          3D

 25 27  0  0  0  0  0  0  0  0999 V2000
    7.0450   -3.3110   19.2560 C   0  0  0  0  0  0  0  0  0  0  0  0
    6.3510   -4.1080   20.2750 C   0  0  0  0  0  0  0  0  0  0  0  0
    5.2890   -4.6790   19.9200 O   0  0  0  0  0  0  0  0  0  0  0  0
    6.8880   -4.2570   21.5540 N   0  0  0  0  0  0  0  0  0  0  0  0
    6.6020   -5.4380   22.3380 C   0  0  0  0  0  0  0  0  0  0  0  0
    5.9320   -4.9920   23.6080 C   0  0  0  0  0  0  0  0  0  0  0  0
    6.6520   -3.8170   24.2090 C   0  0  0  0  0  0  0  0  0  0  0  0
    5.8820   -3.2420   25.3300 C   0  0  0  0  0  0  0  0  0  0  0  0
    4.6840   -2.9370   25.1380 O   0  0  0  0  0  0  0  0  0  0  0  0
    6.4430   -3.0350   26.5980 N   0  0  0  0  0  0  0  0  0  0  0  0
    6.4150   -1.7490   27.2450 C   0  0  0  0  0  0  0  0  0  0  0  0
    5.8400   -0.5110   26.6130 C   0  0  0  0  0  0  0  0  0  0  0  0
    5.8310    0.7000   27.2840 C   0  0  0  0  0  0  0  0  0  0  0  0
    6.3330    0.9180   28.5800 C   0  0  0  0  0  0  0  0  0  0  0  0
    6.2400    2.1670   29.0960 N   0  0  0  0  0  0  0  0  0  0  0  0
    5.4800    2.4390   30.1680 C   0  0  0  0  0  0  0  0  0  0  0  0
    4.1120    2.4110   29.9040 C   0  0  0  0  0  0  0  0  0  0  0  0
    3.6300    3.3530   28.4730 S   0  0  0  0  0  0  0  0  0  0  0  0
    5.2760    3.7600   27.8120 C   0  0  0  0  0  0  0  0  0  0  0  0
    6.5800    3.2640   28.3850 C   0  0  0  0  0  0  0  0  0  0  0  0
    6.9000   -0.1730   29.2620 C   0  0  0  0  0  0  0  0  0  0  0  0
    7.5350    0.0500   30.8760 Cl  0  0  0  0  0  0  0  0  0  0  0  0
    6.9450   -1.5180   28.5940 C   0  0  0  0  0  0  0  0  0  0  0  0
    6.8760   -2.7400   23.2040 C   0  0  0  0  0  0  0  0  0  0  0  0
    7.6820   -3.2040   22.1990 C   0  0  0  0  0  0  0  0  0  0  0  0
  1  2  1  0
  2  3  2  0
  2  4  1  0
  4  5  1  0
  5  6  1  0
  6  7  1  0
  7  8  1  0
  8  9  2  0
  8 10  1  0
 10 11  1  0
 11 12  2  0
 12 13  1  0
 13 14  2  0
 14 15  1  0
 15 16  1  0
 16 17  1  0
 17 18  1  0
 18 19  1  0
 15 20  1  0
 19 20  1  0
 14 21  1  0
 21 22  1  0
 11 23  1  0
 21 23  2  0
  7 24  1  0
  4 25  1  0
 24 25  1  0
M  END
