piperidine-amides-14491-covalent
     RDKit          3D

 23 25  0  0  0  0  0  0  0  0999 V2000
    7.0900   -3.3390   19.3580 C   0  0  0  0  0  0  0  0  0  0  0  0
    6.3770   -4.1440   20.3390 C   0  0  0  0  0  0  0  0  0  0  0  0
    5.3600   -4.7570   19.9650 O   0  0  0  0  0  0  0  0  0  0  0  0
    6.8810   -4.2510   21.6590 N   0  0  0  0  0  0  0  0  0  0  0  0
    7.5560   -3.1250   22.2480 C   0  0  0  0  0  0  0  0  0  0  0  0
    7.4850   -3.1920   23.7530 C   0  0  0  0  0  0  0  0  0  0  0  0
    6.0800   -3.6300   24.1290 C   0  0  0  0  0  0  0  0  0  0  0  0
    5.8010   -3.5560   25.6050 C   0  0  0  0  0  0  0  0  0  0  0  0
    5.7420   -4.6280   26.1740 O   0  0  0  0  0  0  0  0  0  0  0  0
    5.5760   -2.3390   26.2470 N   0  0  0  0  0  0  0  0  0  0  0  0
    6.5970   -1.4530   26.6860 C   0  0  2  0  0  0  0  0  0  0  0  0
    6.9380   -1.4450   28.0780 C   0  0  0  0  0  0  0  0  0  0  0  0
    5.9970   -1.3020   29.0640 C   0  0  0  0  0  0  0  0  0  0  0  0
    5.2170   -0.2700   28.7160 O   0  0  0  0  0  0  0  0  0  0  0  0
    5.3820    0.5850   27.7520 C   0  0  0  0  0  0  0  0  0  0  0  0
    6.2710    1.6680   28.2770 C   0  0  0  0  0  0  0  0  0  0  0  0
    5.5500    2.7710   29.0920 C   0  0  0  0  0  0  0  0  0  0  0  0
    4.3800    3.2640   28.3280 C   0  0  0  0  0  0  0  0  0  0  0  0
    3.4590    2.1050   28.0680 C   0  0  0  0  0  0  0  0  0  0  0  0
    4.2040    1.0760   27.1860 C   0  0  0  0  0  0  0  0  0  0  0  0
    5.9840   -0.0490   26.6570 C   0  0  0  0  0  0  0  0  0  0  0  0
    5.9740   -5.0780   23.7430 C   0  0  0  0  0  0  0  0  0  0  0  0
    6.5210   -5.4310   22.3950 C   0  0  0  0  0  0  0  0  0  0  0  0
  1  2  1  0
  2  3  2  0
  2  4  1  0
  4  5  1  0
  5  6  1  0
  6  7  1  0
  7  8  1  0
  8  9  2  0
  8 10  1  0
 11 10  1  1
 11 12  1  0
 12 13  1  0
 13 14  1  0
 15 14  1  0
 15 16  1  0
 16 17  1  0
 17 18  1  0
 18 19  1  0
 15 20  1  0
 19 20  1  0
 11 21  1  0
 15 21  1  0
  7 22  1  0
  4 23  1  0
 22 23  1  0
M  END
