piperidine-amides-13525-covalent
     RDKit          3D

 21 21  0  0  0  0  0  0  0  0999 V2000
    7.1030   -3.2690   19.2500 C   0  0  0  0  0  0  0  0  0  0  0  0
    6.3520   -4.0740   20.2560 C   0  0  0  0  0  0  0  0  0  0  0  0
    5.2860   -4.6090   19.9040 O   0  0  0  0  0  0  0  0  0  0  0  0
    6.8730   -4.2650   21.5530 N   0  0  0  0  0  0  0  0  0  0  0  0
    6.6220   -5.4750   22.2920 C   0  0  0  0  0  0  0  0  0  0  0  0
    5.8700   -5.0670   23.5620 C   0  0  0  0  0  0  0  0  0  0  0  0
    6.6050   -3.9140   24.1660 C   0  0  0  0  0  0  0  0  0  0  0  0
    5.9090   -3.3610   25.3480 C   0  0  0  0  0  0  0  0  0  0  0  0
    4.8310   -2.7950   25.1310 O   0  0  0  0  0  0  0  0  0  0  0  0
    6.4670   -3.4980   26.6270 N   0  0  0  0  0  0  0  0  0  0  0  0
    6.8030   -4.7090   27.2890 C   0  0  0  0  0  0  0  0  0  0  0  0
    5.9180   -5.7220   27.5440 C   0  0  0  0  0  0  0  0  0  0  0  0
    5.5520   -6.0500   28.8540 C   0  0  0  0  0  0  0  0  0  0  0  0
    4.2520   -5.4610   29.1520 N   0  0  0  0  0  0  0  0  0  0  0  0
    3.0200   -5.9140   28.8060 C   0  0  0  0  0  0  0  0  0  0  0  0
    2.8600   -6.9150   27.9560 O   0  0  0  0  0  0  0  0  0  0  0  0
    1.7920   -5.2930   29.3780 C   0  0  0  0  0  0  0  0  0  0  0  0
    0.6140   -5.5640   28.6970 O   0  0  0  0  0  0  0  0  0  0  0  0
    0.3990   -6.8070   28.0490 C   0  0  0  0  0  0  0  0  0  0  0  0
    6.8450   -2.7690   23.2240 C   0  0  0  0  0  0  0  0  0  0  0  0
    7.6320   -3.2210   22.1900 C   0  0  0  0  0  0  0  0  0  0  0  0
  1  2  1  0
  2  3  2  0
  2  4  1  0
  4  5  1  0
  5  6  1  0
  6  7  1  0
  7  8  1  0
  8  9  2  0
  8 10  1  0
 10 11  1  0
 11 12  1  0
 12 13  1  0
 13 14  1  0
 14 15  1  0
 15 16  2  0
 15 17  1  0
 17 18  1  0
 18 19  1  0
  7 20  1  0
  4 21  1  0
 20 21  1  0
M  END
