piperidine-amides-11908-covalent
     RDKit          3D

 27 28  0  0  0  0  0  0  0  0999 V2000
    7.1240   -3.2390   19.1710 C   0  0  0  0  0  0  0  0  0  0  0  0
    6.3450   -3.9530   20.1790 C   0  0  0  0  0  0  0  0  0  0  0  0
    5.2980   -4.5240   19.8720 O   0  0  0  0  0  0  0  0  0  0  0  0
    6.8260   -4.0300   21.5250 N   0  0  0  0  0  0  0  0  0  0  0  0
    7.7260   -3.0300   22.0340 C   0  0  0  0  0  0  0  0  0  0  0  0
    7.5560   -2.9240   23.5160 C   0  0  0  0  0  0  0  0  0  0  0  0
    6.0820   -3.1200   23.8120 C   0  0  0  0  0  0  0  0  0  0  0  0
    5.7990   -2.9120   25.2670 C   0  0  0  0  0  0  0  0  0  0  0  0
    4.6520   -3.0570   25.7490 O   0  0  0  0  0  0  0  0  0  0  0  0
    6.8720   -2.5180   26.1200 N   0  0  0  0  0  0  0  0  0  0  0  0
    6.7620   -2.6850   27.5600 C   0  0  0  0  0  0  0  0  0  0  0  0
    6.7920   -4.1540   27.8630 C   0  0  0  0  0  0  0  0  0  0  0  0
    6.6450   -5.0020   26.8040 C   0  0  0  0  0  0  0  0  0  0  0  0
    5.3300   -5.4830   26.5030 C   0  0  0  0  0  0  0  0  0  0  0  0
    5.0240   -6.3450   25.4740 C   0  0  0  0  0  0  0  0  0  0  0  0
    3.8640   -6.7420   25.2740 O   0  0  0  0  0  0  0  0  0  0  0  0
    3.0880   -7.5710   26.0580 C   0  0  0  0  0  0  0  0  0  0  0  0
    6.0140   -6.7630   24.6880 C   0  0  0  0  0  0  0  0  0  0  0  0
    5.8210   -7.6150   23.6640 O   0  0  0  0  0  0  0  0  0  0  0  0
    7.0070   -7.9020   22.9870 C   0  0  0  0  0  0  0  0  0  0  0  0
    7.3860   -6.2800   24.9640 C   0  0  0  0  0  0  0  0  0  0  0  0
    7.7430   -5.3860   26.0410 C   0  0  0  0  0  0  0  0  0  0  0  0
    8.5740   -4.8210   26.5810 N   0  0  0  0  0  0  0  0  0  0  0  0
    8.5060   -3.4640   26.4390 O   0  0  0  0  0  0  0  0  0  0  0  0
    9.2230   -5.3070   27.6460 O   0  0  0  0  0  0  0  0  0  0  0  0
    5.5080   -4.4400   23.3030 C   0  0  0  0  0  0  0  0  0  0  0  0
    6.3890   -5.0580   22.4120 C   0  0  0  0  0  0  0  0  0  0  0  0
  1  2  1  0
  2  3  2  0
  2  4  1  0
  4  5  1  0
  5  6  1  0
  6  7  1  0
  7  8  1  0
  8  9  2  0
  8 10  1  0
 10 11  1  0
 11 12  1  0
 12 13  1  0
 13 14  2  0
 14 15  1  0
 15 16  1  0
 16 17  1  0
 15 18  2  0
 18 19  1  0
 19 20  1  0
 18 21  1  0
 13 22  1  0
 21 22  2  0
 22 23  1  0
 23 24  2  0
 23 25  1  0
  7 26  1  0
  4 27  1  0
 26 27  1  0
M  CHG  2  23   1  25  -1
M  END
