piperidine-amides-11868-covalent
     RDKit          3D

 27 28  0  0  0  0  0  0  0  0999 V2000
    7.1490   -3.2820   19.2390 C   0  0  0  0  0  0  0  0  0  0  0  0
    6.3360   -4.0200   20.1930 C   0  0  0  0  0  0  0  0  0  0  0  0
    5.2540   -4.4950   19.8580 O   0  0  0  0  0  0  0  0  0  0  0  0
    6.8380   -4.2490   21.5100 N   0  0  0  0  0  0  0  0  0  0  0  0
    7.6350   -3.2410   22.1640 C   0  0  0  0  0  0  0  0  0  0  0  0
    6.9060   -2.7140   23.3650 C   0  0  0  0  0  0  0  0  0  0  0  0
    6.5020   -3.9100   24.1990 C   0  0  0  0  0  0  0  0  0  0  0  0
    5.7520   -3.4550   25.4010 C   0  0  0  0  0  0  0  0  0  0  0  0
    4.5540   -3.1180   25.3530 O   0  0  0  0  0  0  0  0  0  0  0  0
    6.4400   -3.3940   26.6300 N   0  0  0  0  0  0  0  0  0  0  0  0
    5.8380   -3.9350   27.8320 C   0  0  2  0  0  0  0  0  0  0  0  0
    6.8260   -4.6880   28.6750 C   0  0  0  0  0  0  0  0  0  0  0  0
    4.7810   -4.9280   27.5720 C   0  0  0  0  0  0  0  0  0  0  0  0
    4.8640   -5.8080   26.4830 C   0  0  0  0  0  0  0  0  0  0  0  0
    3.8580   -6.7290   26.2890 C   0  0  0  0  0  0  0  0  0  0  0  0
    2.7610   -6.7320   27.2360 C   0  0  0  0  0  0  0  0  0  0  0  0
    2.6580   -5.8820   28.3070 C   0  0  0  0  0  0  0  0  0  0  0  0
    1.7010   -5.8320   29.2030 O   0  0  0  0  0  0  0  0  0  0  0  0
    1.3700   -5.5130   30.5570 C   0  0  0  0  0  0  0  0  0  0  0  0
    2.5200   -5.5210   31.3590 C   0  0  0  0  0  0  0  0  0  0  0  0
    3.0070   -4.3310   31.8970 O   0  0  0  0  0  0  0  0  0  0  0  0
    3.0260   -6.7480   31.5260 N   0  0  0  0  0  0  0  0  0  0  0  0
    4.2410   -6.8680   30.9270 C   0  0  0  0  0  0  0  0  0  0  0  0
    4.5150   -7.6660   29.8270 C   0  0  0  0  0  0  0  0  0  0  0  0
    3.6910   -4.9700   28.4640 C   0  0  0  0  0  0  0  0  0  0  0  0
    5.6160   -4.8520   23.4250 C   0  0  0  0  0  0  0  0  0  0  0  0
    6.4370   -5.4050   22.2590 C   0  0  0  0  0  0  0  0  0  0  0  0
  1  2  1  0
  2  3  2  0
  2  4  1  0
  4  5  1  0
  5  6  1  0
  6  7  1  0
  7  8  1  0
  8  9  2  0
  8 10  1  0
 10 11  1  0
 11 12  1  1
 11 13  1  0
 13 14  2  0
 14 15  1  0
 15 16  2  0
 16 17  1  0
 17 18  1  0
 18 19  1  0
 19 20  1  0
 20 21  2  0
 20 22  1  0
 22 23  1  0
 23 24  1  0
 13 25  1  0
 17 25  2  0
  7 26  1  0
  4 27  1  0
 26 27  1  0
M  END
