piperidine-amides-123-covalent
     RDKit          3D

 22 24  0  0  0  0  0  0  0  0999 V2000
    7.0740   -3.3060   19.1850 C   0  0  0  0  0  0  0  0  0  0  0  0
    6.3320   -3.9740   20.2350 C   0  0  0  0  0  0  0  0  0  0  0  0
    5.2690   -4.5800   19.8970 O   0  0  0  0  0  0  0  0  0  0  0  0
    6.7470   -4.0310   21.5830 N   0  0  0  0  0  0  0  0  0  0  0  0
    7.6320   -2.9440   22.0960 C   0  0  0  0  0  0  0  0  0  0  0  0
    7.5770   -3.1910   23.6530 C   0  0  0  0  0  0  0  0  0  0  0  0
    6.1390   -3.5380   23.9360 C   0  0  0  0  0  0  0  0  0  0  0  0
    5.7170   -3.4280   25.4670 C   0  0  0  0  0  0  0  0  0  0  0  0
    5.5830   -4.5350   25.9440 O   0  0  0  0  0  0  0  0  0  0  0  0
    5.6030   -2.2100   25.8190 N   0  0  0  0  0  0  0  0  0  0  0  0
    5.4110   -0.9410   26.2790 C   0  0  0  0  0  0  0  0  0  0  0  0
    5.7560   -0.1710   27.3740 C   0  0  1  0  0  0  0  0  0  0  0  0
    4.6470    0.5080   27.9510 C   0  0  0  0  0  0  0  0  0  0  0  0
    5.0260    1.3960   29.0760 C   0  0  0  0  0  0  0  0  0  0  0  0
    5.1130    0.1850   30.0240 C   0  0  0  0  0  0  0  0  0  0  0  0
    6.2930   -0.2380   29.3990 C   0  0  0  0  0  0  0  0  0  0  0  0
    6.1530   -1.0070   28.4280 O   0  0  0  0  0  0  0  0  0  0  0  0
    6.0090    0.1690   25.3470 C   0  0  0  0  0  0  0  0  0  0  0  0
    4.5920    0.4520   24.9970 C   0  0  0  0  0  0  0  0  0  0  0  0
    3.9190   -0.6410   25.8070 C   0  0  0  0  0  0  0  0  0  0  0  0
    5.8110   -4.9520   23.4150 C   0  0  0  0  0  0  0  0  0  0  0  0
    6.6140   -5.2540   22.3500 C   0  0  0  0  0  0  0  0  0  0  0  0
  1  2  1  0
  2  3  2  0
  2  4  1  0
  4  5  1  0
  5  6  1  0
  6  7  1  0
  7  8  1  0
  8  9  2  0
  8 10  1  0
 11 10  1  0
 12 11  1  6
 12 13  1  0
 13 14  1  0
 14 15  1  0
 15 16  1  0
 12 17  1  0
 16 17  1  0
 11 18  1  0
 18 19  1  0
 11 20  1  0
 19 20  1  0
  7 21  1  0
  4 22  1  0
 21 22  1  0
M  END
