piperidine-amides-13434-covalent
     RDKit          3D

 25 25  0  0  0  0  0  0  0  0999 V2000
    7.0650   -3.2710   19.2770 C   0  0  0  0  0  0  0  0  0  0  0  0
    6.3280   -4.0760   20.2920 C   0  0  0  0  0  0  0  0  0  0  0  0
    5.3080   -4.6880   19.9350 O   0  0  0  0  0  0  0  0  0  0  0  0
    6.8250   -4.1700   21.6160 N   0  0  0  0  0  0  0  0  0  0  0  0
    6.7080   -5.4070   22.3540 C   0  0  0  0  0  0  0  0  0  0  0  0
    6.0880   -5.0740   23.7160 C   0  0  0  0  0  0  0  0  0  0  0  0
    6.1400   -3.5910   23.8480 C   0  0  0  0  0  0  0  0  0  0  0  0
    5.6540   -3.0890   25.1590 C   0  0  0  0  0  0  0  0  0  0  0  0
    4.4770   -2.7180   25.1860 O   0  0  0  0  0  0  0  0  0  0  0  0
    6.4780   -3.0540   26.2890 N   0  0  0  0  0  0  0  0  0  0  0  0
    6.1840   -3.6660   27.5360 C   0  0  0  0  0  0  0  0  0  0  0  0
    5.8460   -4.9900   27.6510 C   0  0  0  0  0  0  0  0  0  0  0  0
    5.9270   -5.7430   26.4110 O   0  0  0  0  0  0  0  0  0  0  0  0
    5.4340   -5.4570   28.9540 N   0  0  0  0  0  0  0  0  0  0  0  0
    5.0900   -6.7850   29.1440 C   0  0  1  0  0  0  0  0  0  0  0  0
    6.1580   -7.3770   29.7400 C   0  0  0  0  0  0  0  0  0  0  0  0
    3.9620   -7.0300   30.0610 C   0  0  0  0  0  0  0  0  0  0  0  0
    2.8000   -6.2800   29.9720 O   0  0  0  0  0  0  0  0  0  0  0  0
    4.0310   -7.9980   31.0110 O   0  0  0  0  0  0  0  0  0  0  0  0
    3.4870   -7.9420   32.3010 C   0  0  0  0  0  0  0  0  0  0  0  0
    3.0060   -6.4990   32.4680 C   0  0  0  0  0  0  0  0  0  0  0  0
    4.3770   -8.4480   33.2660 C   0  0  0  0  0  0  0  0  0  0  0  0
    2.2210   -8.7660   32.3740 C   0  0  0  0  0  0  0  0  0  0  0  0
    7.4630   -2.9880   23.5160 C   0  0  0  0  0  0  0  0  0  0  0  0
    7.6790   -3.1410   22.1700 C   0  0  0  0  0  0  0  0  0  0  0  0
  1  2  1  0
  2  3  2  0
  2  4  1  0
  4  5  1  0
  5  6  1  0
  6  7  1  0
  7  8  1  0
  8  9  2  0
  8 10  1  0
 10 11  1  0
 11 12  1  0
 12 13  2  0
 12 14  1  0
 14 15  1  0
 15 16  1  1
 15 17  1  0
 17 18  2  0
 17 19  1  0
 20 19  1  0
 20 21  1  0
 20 22  1  0
 20 23  1  0
  7 24  1  0
  4 25  1  0
 24 25  1  0
M  END
