piperidine-amides-24308-covalent
     RDKit          3D

 24 26  0  0  0  0  0  0  0  0999 V2000
    7.1310   -3.3000   19.2570 C   0  0  0  0  0  0  0  0  0  0  0  0
    6.4160   -4.1400   20.2230 C   0  0  0  0  0  0  0  0  0  0  0  0
    5.3340   -4.6900   19.9290 O   0  0  0  0  0  0  0  0  0  0  0  0
    6.9840   -4.3810   21.4690 N   0  0  0  0  0  0  0  0  0  0  0  0
    6.5600   -5.5480   22.1930 C   0  0  0  0  0  0  0  0  0  0  0  0
    5.6200   -5.0160   23.2660 C   0  0  0  0  0  0  0  0  0  0  0  0
    6.5100   -4.1800   24.1420 C   0  0  0  0  0  0  0  0  0  0  0  0
    5.7050   -3.6140   25.2250 C   0  0  0  0  0  0  0  0  0  0  0  0
    4.6250   -3.0560   24.9420 O   0  0  0  0  0  0  0  0  0  0  0  0
    6.1560   -3.7210   26.5450 N   0  0  0  0  0  0  0  0  0  0  0  0
    5.7850   -4.9340   27.2710 C   0  0  0  0  0  0  0  0  0  0  0  0
    6.3510   -4.9340   28.6820 C   0  0  2  0  0  0  0  0  0  0  0  0
    5.3800   -5.4980   29.5410 O   0  0  0  0  0  0  0  0  0  0  0  0
    4.0390   -5.2410   29.4720 C   0  0  0  0  0  0  0  0  0  0  0  0
    6.5100   -3.4800   28.8360 C   0  0  0  0  0  0  0  0  0  0  0  0
    5.8960   -2.9820   27.7440 C   0  0  1  0  0  0  0  0  0  0  0  0
    6.0630   -1.6830   27.3310 C   0  0  0  0  0  0  0  0  0  0  0  0
    6.0700   -0.5560   28.0890 N   0  0  0  0  0  0  0  0  0  0  0  0
    6.2450    0.4860   27.2640 C   0  0  0  0  0  0  0  0  0  0  0  0
    6.2710    1.8230   27.9670 C   0  0  0  0  0  0  0  0  0  0  0  0
    6.3540    0.0580   25.9990 N   0  0  0  0  0  0  0  0  0  0  0  0
    6.2500   -1.2790   25.9910 N   0  0  0  0  0  0  0  0  0  0  0  0
    7.2050   -3.0610   23.4840 C   0  0  0  0  0  0  0  0  0  0  0  0
    7.6730   -3.3300   22.1390 C   0  0  0  0  0  0  0  0  0  0  0  0
  1  2  1  0
  2  3  2  0
  2  4  1  0
  4  5  1  0
  5  6  1  0
  6  7  1  0
  7  8  1  0
  8  9  2  0
  8 10  1  0
 10 11  1  0
 11 12  1  0
 12 13  1  1
 13 14  1  0
 12 15  1  0
 10 16  1  0
 15 16  1  0
 16 17  1  6
 17 18  2  0
 18 19  1  0
 19 20  1  0
 19 21  2  0
 17 22  1  0
 21 22  1  0
  7 23  1  0
  4 24  1  0
 23 24  1  0
M  END
