piperidine-amides-10989-covalent
     RDKit          3D

 21 22  0  0  0  0  0  0  0  0999 V2000
    7.0650   -3.3180   19.2830 C   0  0  0  0  0  0  0  0  0  0  0  0
    6.3600   -4.1240   20.2810 C   0  0  0  0  0  0  0  0  0  0  0  0
    5.3340   -4.7370   19.9480 O   0  0  0  0  0  0  0  0  0  0  0  0
    6.8420   -4.2690   21.5900 N   0  0  0  0  0  0  0  0  0  0  0  0
    6.5910   -5.4420   22.3940 C   0  0  0  0  0  0  0  0  0  0  0  0
    5.8900   -4.9400   23.6330 C   0  0  0  0  0  0  0  0  0  0  0  0
    6.6440   -3.8260   24.3010 C   0  0  0  0  0  0  0  0  0  0  0  0
    5.9630   -3.3430   25.5340 C   0  0  0  0  0  0  0  0  0  0  0  0
    5.4240   -4.1600   26.3260 O   0  0  0  0  0  0  0  0  0  0  0  0
    5.8260   -1.9790   25.8670 N   0  0  0  0  0  0  0  0  0  0  0  0
    6.5880   -1.2600   26.9230 C   0  0  1  0  0  0  0  0  0  0  0  0
    6.0710    0.1250   26.7640 C   0  0  0  0  0  0  0  0  0  0  0  0
    5.2190    0.4410   27.8690 C   0  0  0  0  0  0  0  0  0  0  0  0
    5.2350   -0.8340   28.6320 C   0  0  0  0  0  0  0  0  0  0  0  0
    6.5290   -1.5790   28.3490 C   0  0  2  0  0  0  0  0  0  0  0  0
    7.4640   -0.9810   29.3370 C   0  0  0  0  0  0  0  0  0  0  0  0
    8.8040   -1.1270   29.2710 O   0  0  0  0  0  0  0  0  0  0  0  0
    6.8650   -0.2300   30.3890 N   0  0  0  0  0  0  0  0  0  0  0  0
    7.7510    0.1680   31.3210 C   0  0  0  0  0  0  0  0  0  0  0  0
    6.8670   -2.6780   23.3600 C   0  0  0  0  0  0  0  0  0  0  0  0
    7.6420   -3.2160   22.1830 C   0  0  0  0  0  0  0  0  0  0  0  0
  1  2  1  0
  2  3  2  0
  2  4  1  0
  4  5  1  0
  5  6  1  0
  6  7  1  0
  7  8  1  0
  8  9  2  0
  8 10  1  0
 11 10  1  6
 11 12  1  0
 12 13  1  0
 13 14  1  0
 11 15  1  0
 14 15  1  0
 15 16  1  1
 16 17  2  0
 16 18  1  0
 18 19  1  0
  7 20  1  0
  4 21  1  0
 20 21  1  0
M  END
