piperidine-amides-4026-covalent
     RDKit          3D

 28 29  0  0  0  0  0  0  0  0999 V2000
    7.2210   -3.2720   19.0760 C   0  0  0  0  0  0  0  0  0  0  0  0
    6.4560   -3.9750   20.1150 C   0  0  0  0  0  0  0  0  0  0  0  0
    5.3040   -4.3750   19.8210 O   0  0  0  0  0  0  0  0  0  0  0  0
    7.0570   -4.2460   21.3570 N   0  0  0  0  0  0  0  0  0  0  0  0
    7.7800   -3.1850   21.9620 C   0  0  0  0  0  0  0  0  0  0  0  0
    7.3160   -2.7860   23.2660 C   0  0  0  0  0  0  0  0  0  0  0  0
    6.5470   -3.7760   24.0400 C   0  0  0  0  0  0  0  0  0  0  0  0
    5.6520   -3.0410   24.9370 C   0  0  0  0  0  0  0  0  0  0  0  0
    4.6520   -2.4650   24.4820 O   0  0  0  0  0  0  0  0  0  0  0  0
    5.9220   -2.9990   26.2760 N   0  0  0  0  0  0  0  0  0  0  0  0
    5.1410   -3.5710   27.2600 C   0  0  2  0  0  0  0  0  0  0  0  0
    5.6300   -4.7280   27.9470 C   0  0  0  0  0  0  0  0  0  0  0  0
    6.2040   -4.0670   29.1720 C   0  0  0  0  0  0  0  0  0  0  0  0
    5.5670   -2.9400   29.6660 C   0  0  0  0  0  0  0  0  0  0  0  0
    6.7020   -2.6520   28.7830 C   0  0  0  0  0  0  0  0  0  0  0  0
    3.7370   -3.8390   26.7920 C   0  0  0  0  0  0  0  0  0  0  0  0
    3.5720   -2.3270   26.8120 C   0  0  0  0  0  0  0  0  0  0  0  0
    2.2580   -1.7300   26.4210 C   0  0  0  0  0  0  0  0  0  0  0  0
    1.2110   -2.7700   26.0390 C   0  0  0  0  0  0  0  0  0  0  0  0
    1.4640   -4.3030   26.0450 C   0  0  0  0  0  0  0  0  0  0  0  0
    2.8230   -4.8060   26.4520 C   0  0  0  0  0  0  0  0  0  0  0  0
    3.0560   -6.0380   26.4620 O   0  0  0  0  0  0  0  0  0  0  0  0
    2.3830   -6.8290   25.5040 C   0  0  0  0  0  0  0  0  0  0  0  0
    2.3940   -6.2840   24.2300 C   0  0  0  0  0  0  0  0  0  0  0  0
    2.8780   -7.2840   23.2120 C   0  0  0  0  0  0  0  0  0  0  0  0
    1.1050   -5.8420   23.6950 C   0  0  0  0  0  0  0  0  0  0  0  0
    5.7060   -4.7030   23.1930 C   0  0  0  0  0  0  0  0  0  0  0  0
    6.5670   -5.3330   22.1440 C   0  0  0  0  0  0  0  0  0  0  0  0
  1  2  1  0
  2  3  2  0
  2  4  1  0
  4  5  1  0
  5  6  1  0
  6  7  1  0
  7  8  1  0
  8  9  2  0
  8 10  1  0
 10 11  1  0
 11 12  1  6
 12 13  1  0
 13 14  1  0
 13 15  1  0
 11 16  1  0
 16 17  2  0
 17 18  1  0
 18 19  2  0
 19 20  1  0
 16 21  1  0
 20 21  2  0
 21 22  1  0
 22 23  1  0
 23 24  1  0
 24 25  1  0
 24 26  1  0
  7 27  1  0
  4 28  1  0
 27 28  1  0
M  END
