piperidine-amides-33540-covalent
     RDKit          3D

 29 32  0  0  0  0  0  0  0  0999 V2000
    7.0980   -3.3400   19.2630 C   0  0  0  0  0  0  0  0  0  0  0  0
    6.4060   -4.1440   20.2800 C   0  0  0  0  0  0  0  0  0  0  0  0
    5.3330   -4.6940   19.9390 O   0  0  0  0  0  0  0  0  0  0  0  0
    6.9740   -4.3360   21.5640 N   0  0  0  0  0  0  0  0  0  0  0  0
    6.4720   -5.4050   22.3410 C   0  0  0  0  0  0  0  0  0  0  0  0
    5.9140   -4.9810   23.6260 C   0  0  0  0  0  0  0  0  0  0  0  0
    6.5680   -3.8280   24.3000 C   0  0  0  0  0  0  0  0  0  0  0  0
    5.7550   -3.4100   25.4930 C   0  0  0  0  0  0  0  0  0  0  0  0
    4.5530   -3.7350   25.5320 O   0  0  0  0  0  0  0  0  0  0  0  0
    6.2620   -2.6380   26.5620 N   0  0  0  0  0  0  0  0  0  0  0  0
    6.2450   -3.0790   27.9150 C   0  0  0  0  0  0  0  0  0  0  0  0
    6.3080   -2.0960   28.9980 C   0  0  0  0  0  0  0  0  0  0  0  0
    4.9430   -1.8620   29.5780 C   0  0  0  0  0  0  0  0  0  0  0  0
    4.7020   -0.9960   30.5960 C   0  0  0  0  0  0  0  0  0  0  0  0
    5.8790   -0.1990   31.2070 C   0  0  0  0  0  0  0  0  0  0  0  0
    7.2840   -0.4120   30.6420 C   0  0  0  0  0  0  0  0  0  0  0  0
    7.5020   -1.4150   29.4760 C   0  0  0  0  0  0  0  0  0  0  0  0
    6.2390   -1.2100   26.5720 C   0  0  0  0  0  0  0  0  0  0  0  0
    6.2130   -0.6760   25.2920 N   0  0  0  0  0  0  0  0  0  0  0  0
    6.1830    0.6730   25.3180 C   0  0  0  0  0  0  0  0  0  0  0  0
    6.1550    1.4910   24.0210 C   0  0  0  0  0  0  0  0  0  0  0  0
    6.1260    2.9490   24.2830 C   0  0  0  0  0  0  0  0  0  0  0  0
    6.1220    3.5680   25.5250 C   0  0  0  0  0  0  0  0  0  0  0  0
    6.0910    4.9720   25.4560 F   0  0  0  0  0  0  0  0  0  0  0  0
    6.1480    2.8320   26.6870 C   0  0  0  0  0  0  0  0  0  0  0  0
    6.1790    1.3180   26.5840 C   0  0  0  0  0  0  0  0  0  0  0  0
    6.2190    0.0580   27.7760 S   0  0  0  0  0  0  0  0  0  0  0  0
    6.8440   -2.7000   23.3620 C   0  0  0  0  0  0  0  0  0  0  0  0
    7.6250   -3.2280   22.1830 C   0  0  0  0  0  0  0  0  0  0  0  0
  1  2  1  0
  2  3  2  0
  2  4  1  0
  4  5  1  0
  5  6  1  0
  6  7  1  0
  7  8  1  0
  8  9  2  0
  8 10  1  0
 10 11  1  0
 11 12  1  0
 12 13  2  0
 13 14  1  0
 14 15  2  0
 15 16  1  0
 12 17  1  0
 16 17  2  0
 10 18  1  0
 18 19  2  0
 19 20  1  0
 20 21  2  0
 21 22  1  0
 22 23  2  0
 23 24  1  0
 23 25  1  0
 20 26  1  0
 25 26  2  0
 18 27  1  0
 26 27  1  0
  7 28  1  0
  4 29  1  0
 28 29  1  0
M  END
