piperidine-amides-8850-covalent
     RDKit          3D

 22 24  0  0  0  0  0  0  0  0999 V2000
    6.9880   -3.3400   19.3880 C   0  0  0  0  0  0  0  0  0  0  0  0
    6.3500   -4.1890   20.3970 C   0  0  0  0  0  0  0  0  0  0  0  0
    5.4350   -4.9390   20.0050 O   0  0  0  0  0  0  0  0  0  0  0  0
    6.7660   -4.1820   21.7660 N   0  0  0  0  0  0  0  0  0  0  0  0
    7.6730   -3.1600   22.2290 C   0  0  0  0  0  0  0  0  0  0  0  0
    7.5010   -3.0200   23.7040 C   0  0  0  0  0  0  0  0  0  0  0  0
    6.1070   -3.5310   23.9400 C   0  0  0  0  0  0  0  0  0  0  0  0
    5.5560   -3.2000   25.3090 C   0  0  0  0  0  0  0  0  0  0  0  0
    4.3330   -3.2580   25.3950 O   0  0  0  0  0  0  0  0  0  0  0  0
    6.3930   -2.8660   26.3820 N   0  0  0  0  0  0  0  0  0  0  0  0
    6.7250   -1.5200   26.7940 C   0  0  2  0  0  0  0  0  0  0  0  0
    7.1230   -1.4530   28.1440 C   0  0  0  0  0  0  0  0  0  0  0  0
    6.4720   -0.6040   28.9900 C   0  0  0  0  0  0  0  0  0  0  0  0
    6.2450    0.7070   28.6370 C   0  0  0  0  0  0  0  0  0  0  0  0
    5.3530    0.5680   27.4490 C   0  0  0  0  0  0  0  0  0  0  0  0
    4.3770    1.4890   27.3120 N   0  0  0  0  0  0  0  0  0  0  0  0
    3.5120    1.4960   26.3120 C   0  0  0  0  0  0  0  0  0  0  0  0
    3.5490    0.4730   25.2430 C   0  0  0  0  0  0  0  0  0  0  0  0
    4.6270   -0.5710   25.3690 C   0  0  0  0  0  0  0  0  0  0  0  0
    5.6190   -0.5380   26.5660 C   0  0  0  0  0  0  0  0  0  0  0  0
    6.0790   -5.0440   23.7830 C   0  0  0  0  0  0  0  0  0  0  0  0
    6.6600   -5.3890   22.5620 C   0  0  0  0  0  0  0  0  0  0  0  0
  1  2  1  0
  2  3  2  0
  2  4  1  0
  4  5  1  0
  5  6  1  0
  6  7  1  0
  7  8  1  0
  8  9  2  0
  8 10  1  0
 11 10  1  1
 11 12  1  0
 12 13  1  0
 13 14  1  0
 14 15  1  0
 15 16  2  0
 16 17  1  0
 17 18  2  0
 18 19  1  0
 11 20  1  0
 15 20  1  0
 19 20  2  0
  7 21  1  0
  4 22  1  0
 21 22  1  0
M  END
