piperidine-amides-6755-covalent
     RDKit          3D

 23 24  0  0  0  0  0  0  0  0999 V2000
    7.1510   -3.3000   19.3020 C   0  0  0  0  0  0  0  0  0  0  0  0
    6.3890   -4.0760   20.2860 C   0  0  0  0  0  0  0  0  0  0  0  0
    5.3490   -4.6850   19.9430 O   0  0  0  0  0  0  0  0  0  0  0  0
    6.8610   -4.1680   21.6020 N   0  0  0  0  0  0  0  0  0  0  0  0
    7.7290   -3.1160   22.0990 C   0  0  0  0  0  0  0  0  0  0  0  0
    7.4840   -2.9970   23.6060 C   0  0  0  0  0  0  0  0  0  0  0  0
    6.0730   -3.4820   23.8020 C   0  0  0  0  0  0  0  0  0  0  0  0
    5.5660   -3.1010   25.1320 C   0  0  0  0  0  0  0  0  0  0  0  0
    4.6790   -2.2270   25.1990 O   0  0  0  0  0  0  0  0  0  0  0  0
    6.0660   -3.7210   26.2830 N   0  0  0  0  0  0  0  0  0  0  0  0
    5.5930   -5.0380   26.5980 C   0  0  0  0  0  0  0  0  0  0  0  0
    5.4640   -5.1680   28.0930 C   0  0  1  0  0  0  0  0  0  0  0  0
    6.4000   -4.7170   28.9700 C   0  0  0  0  0  0  0  0  0  0  0  0
    4.3810   -4.3300   28.4440 O   0  0  0  0  0  0  0  0  0  0  0  0
    5.0960   -6.6280   28.3770 C   0  0  1  0  0  0  0  0  0  0  0  0
    5.9270   -7.1900   29.3400 C   0  0  0  0  0  0  0  0  0  0  0  0
    5.6690   -6.8320   30.6170 C   0  0  0  0  0  0  0  0  0  0  0  0
    4.2220   -6.7290   30.9490 C   0  0  2  0  0  0  0  0  0  0  0  0
    5.1100   -7.5270   31.8790 C   0  0  0  0  0  0  0  0  0  0  0  0
    3.2690   -7.2420   29.9710 C   0  0  0  0  0  0  0  0  0  0  0  0
    3.7430   -6.9090   28.6080 C   0  0  0  0  0  0  0  0  0  0  0  0
    6.0620   -4.9700   23.6340 C   0  0  0  0  0  0  0  0  0  0  0  0
    6.5090   -5.3110   22.3870 C   0  0  0  0  0  0  0  0  0  0  0  0
  1  2  1  0
  2  3  2  0
  2  4  1  0
  4  5  1  0
  5  6  1  0
  6  7  1  0
  7  8  1  0
  8  9  2  0
  8 10  1  0
 10 11  1  0
 11 12  1  0
 12 13  1  1
 12 14  1  0
 12 15  1  0
 15 16  1  1
 16 17  1  0
 17 18  1  0
 18 19  1  1
 18 20  1  0
 15 21  1  0
 20 21  1  0
  7 22  1  0
  4 23  1  0
 22 23  1  0
M  END
