piperidine-amides-5362-covalent
     RDKit          3D

 20 21  0  0  0  0  0  0  0  0999 V2000
    7.0890   -3.3210   19.2560 C   0  0  0  0  0  0  0  0  0  0  0  0
    6.3840   -4.1260   20.2540 C   0  0  0  0  0  0  0  0  0  0  0  0
    5.3440   -4.7250   19.9430 O   0  0  0  0  0  0  0  0  0  0  0  0
    6.9040   -4.2730   21.5390 N   0  0  0  0  0  0  0  0  0  0  0  0
    7.7670   -3.2860   22.1520 C   0  0  0  0  0  0  0  0  0  0  0  0
    6.9850   -2.7410   23.2970 C   0  0  0  0  0  0  0  0  0  0  0  0
    6.5680   -3.8550   24.1960 C   0  0  0  0  0  0  0  0  0  0  0  0
    5.8960   -3.3240   25.3940 C   0  0  0  0  0  0  0  0  0  0  0  0
    4.6500   -3.4820   25.5720 O   0  0  0  0  0  0  0  0  0  0  0  0
    6.6250   -2.6140   26.3620 N   0  0  0  0  0  0  0  0  0  0  0  0
    5.9390   -1.6910   27.2760 C   0  0  1  0  0  0  0  0  0  0  0  0
    6.8960   -1.3420   28.3400 C   0  0  0  0  0  0  0  0  0  0  0  0
    6.4370   -0.1170   28.9580 C   0  0  0  0  0  0  0  0  0  0  0  0
    5.4430    0.4670   28.0690 N   0  0  0  0  0  0  0  0  0  0  0  0
    4.1680    0.2110   28.8030 C   0  0  0  0  0  0  0  0  0  0  0  0
    5.3870   -0.4290   26.8890 C   0  0  0  0  0  0  0  0  0  0  0  0
    6.0620    0.1990   25.7320 C   0  0  0  0  0  0  0  0  0  0  0  0
    3.9400   -0.6670   26.4020 C   0  0  0  0  0  0  0  0  0  0  0  0
    5.7040   -4.8610   23.4830 C   0  0  0  0  0  0  0  0  0  0  0  0
    6.5190   -5.4200   22.3370 C   0  0  0  0  0  0  0  0  0  0  0  0
  1  2  1  0
  2  3  2  0
  2  4  1  0
  4  5  1  0
  5  6  1  0
  6  7  1  0
  7  8  1  0
  8  9  2  0
  8 10  1  0
 11 10  1  6
 11 12  1  0
 12 13  1  0
 13 14  1  0
 14 15  1  0
 11 16  1  0
 14 16  1  0
 16 17  1  0
 16 18  1  0
  7 19  1  0
  4 20  1  0
 19 20  1  0
M  END
