piperidine-amides-7007-covalent
     RDKit          3D

 22 23  0  0  0  0  0  0  0  0999 V2000
    7.1180   -3.2880   19.3180 C   0  0  0  0  0  0  0  0  0  0  0  0
    6.3510   -4.0640   20.2980 C   0  0  0  0  0  0  0  0  0  0  0  0
    5.3270   -4.6870   19.9390 O   0  0  0  0  0  0  0  0  0  0  0  0
    6.7820   -4.1600   21.6330 N   0  0  0  0  0  0  0  0  0  0  0  0
    6.5500   -5.3990   22.3500 C   0  0  0  0  0  0  0  0  0  0  0  0
    6.1790   -5.0920   23.8210 C   0  0  0  0  0  0  0  0  0  0  0  0
    6.0880   -3.5890   23.9880 C   0  0  0  0  0  0  0  0  0  0  0  0
    5.6600   -3.1790   25.3540 C   0  0  0  0  0  0  0  0  0  0  0  0
    4.6930   -2.3920   25.4190 O   0  0  0  0  0  0  0  0  0  0  0  0
    6.2890   -3.6440   26.5450 N   0  0  0  0  0  0  0  0  0  0  0  0
    5.6480   -4.6870   27.3110 C   0  0  1  0  0  0  0  0  0  0  0  0
    5.5600   -5.8710   26.3970 C   0  0  0  0  0  0  0  0  0  0  0  0
    6.4060   -5.1650   28.4880 C   0  0  0  0  0  0  0  0  0  0  0  0
    5.7290   -5.8800   29.4430 C   0  0  0  0  0  0  0  0  0  0  0  0
    4.2890   -4.1900   27.7260 C   0  0  0  0  0  0  0  0  0  0  0  0
    4.1400   -3.6010   28.9370 N   0  0  0  0  0  0  0  0  0  0  0  0
    2.8260   -3.2150   29.1460 C   0  0  0  0  0  0  0  0  0  0  0  0
    1.8170   -2.5710   30.0720 C   0  0  0  0  0  0  0  0  0  0  0  0
    1.7550   -3.4120   28.1960 C   0  0  0  0  0  0  0  0  0  0  0  0
    2.6660   -4.1820   26.9550 S   0  0  0  0  0  0  0  0  0  0  0  0
    7.3180   -2.8990   23.5980 C   0  0  0  0  0  0  0  0  0  0  0  0
    7.6370   -3.1650   22.2060 C   0  0  0  0  0  0  0  0  0  0  0  0
  1  2  1  0
  2  3  2  0
  2  4  1  0
  4  5  1  0
  5  6  1  0
  6  7  1  0
  7  8  1  0
  8  9  2  0
  8 10  1  0
 11 10  1  0
 11 12  1  6
 11 13  1  0
 13 14  1  0
 11 15  1  0
 15 16  2  0
 16 17  1  0
 17 18  1  0
 17 19  2  0
 15 20  1  0
 19 20  1  0
  7 21  1  0
  4 22  1  0
 21 22  1  0
M  END
