piperidine-amides-27328-covalent
     RDKit          3D

 25 27  0  0  0  0  0  0  0  0999 V2000
    6.9930   -3.3690   19.4030 C   0  0  0  0  0  0  0  0  0  0  0  0
    6.3650   -4.2400   20.4050 C   0  0  0  0  0  0  0  0  0  0  0  0
    5.3900   -4.9230   19.9950 O   0  0  0  0  0  0  0  0  0  0  0  0
    6.8550   -4.3250   21.7160 N   0  0  0  0  0  0  0  0  0  0  0  0
    6.6330   -5.4960   22.5260 C   0  0  0  0  0  0  0  0  0  0  0  0
    5.8630   -5.0960   23.7640 C   0  0  0  0  0  0  0  0  0  0  0  0
    6.3160   -3.7900   24.3930 C   0  0  0  0  0  0  0  0  0  0  0  0
    5.2600   -3.2860   25.3430 C   0  0  0  0  0  0  0  0  0  0  0  0
    4.1990   -2.9020   24.8240 O   0  0  0  0  0  0  0  0  0  0  0  0
    5.3590   -3.2080   26.7770 N   0  0  0  0  0  0  0  0  0  0  0  0
    6.5930   -3.3520   27.4100 C   0  0  0  0  0  0  0  0  0  0  0  0
    6.7040   -4.7190   28.1220 C   0  0  0  0  0  0  0  0  0  0  0  0
    5.7290   -5.2260   28.8780 C   0  0  0  0  0  0  0  0  0  0  0  0
    5.7620   -6.2780   29.7810 C   0  0  0  0  0  0  0  0  0  0  0  0
    4.5920   -6.6470   30.4640 C   0  0  0  0  0  0  0  0  0  0  0  0
    3.3800   -5.9850   30.2630 C   0  0  0  0  0  0  0  0  0  0  0  0
    3.3060   -4.9420   29.3750 C   0  0  0  0  0  0  0  0  0  0  0  0
    4.5640   -4.5700   28.6610 C   0  0  0  0  0  0  0  0  0  0  0  0
    4.2950   -3.4030   27.7030 C   0  0  1  0  0  0  0  0  0  0  0  0
    3.9300   -2.0610   28.3250 C   0  0  0  0  0  0  0  0  0  0  0  0
    3.8460   -0.9980   27.4990 F   0  0  0  0  0  0  0  0  0  0  0  0
    2.6760   -2.1030   28.9310 F   0  0  0  0  0  0  0  0  0  0  0  0
    4.8830   -1.7880   29.2910 F   0  0  0  0  0  0  0  0  0  0  0  0
    6.6090   -2.7400   23.3440 C   0  0  0  0  0  0  0  0  0  0  0  0
    7.5140   -3.2170   22.4130 C   0  0  0  0  0  0  0  0  0  0  0  0
  1  2  1  0
  2  3  2  0
  2  4  1  0
  4  5  1  0
  5  6  1  0
  6  7  1  0
  7  8  1  0
  8  9  2  0
  8 10  1  0
 10 11  1  0
 11 12  1  0
 12 13  1  0
 13 14  2  0
 14 15  1  0
 15 16  2  0
 16 17  1  0
 13 18  1  0
 17 18  2  0
 10 19  1  0
 18 19  1  0
 19 20  1  1
 20 21  1  0
 20 22  1  0
 20 23  1  0
  7 24  1  0
  4 25  1  0
 24 25  1  0
M  END
