piperidine-amides-3414-covalent
     RDKit          3D

 21 22  0  0  0  0  0  0  0  0999 V2000
    7.1310   -3.2860   19.2310 C   0  0  0  0  0  0  0  0  0  0  0  0
    6.3770   -4.0610   20.2110 C   0  0  0  0  0  0  0  0  0  0  0  0
    5.3090   -4.5830   19.8980 O   0  0  0  0  0  0  0  0  0  0  0  0
    6.9140   -4.2600   21.5250 N   0  0  0  0  0  0  0  0  0  0  0  0
    7.7340   -3.2270   22.0910 C   0  0  0  0  0  0  0  0  0  0  0  0
    7.0680   -2.6830   23.3090 C   0  0  0  0  0  0  0  0  0  0  0  0
    6.5920   -3.8430   24.1630 C   0  0  0  0  0  0  0  0  0  0  0  0
    5.9440   -3.2840   25.3720 C   0  0  0  0  0  0  0  0  0  0  0  0
    4.7690   -3.5460   25.7030 O   0  0  0  0  0  0  0  0  0  0  0  0
    6.7240   -2.4070   26.1560 N   0  0  0  0  0  0  0  0  0  0  0  0
    6.0810   -1.5210   27.0870 C   0  0  0  0  0  0  0  0  0  0  0  0
    5.8000   -0.2160   26.3740 C   0  0  0  0  0  0  0  0  0  0  0  0
    6.2660   -0.0240   25.0830 C   0  0  0  0  0  0  0  0  0  0  0  0
    6.0240    1.1630   24.4080 C   0  0  0  0  0  0  0  0  0  0  0  0
    5.3030    2.1610   25.0540 N   0  0  0  0  0  0  0  0  0  0  0  0
    4.8290    1.9810   26.3530 C   0  0  0  0  0  0  0  0  0  0  0  0
    5.0600    0.7390   27.1080 C   0  0  0  0  0  0  0  0  0  0  0  0
    4.5890    0.6560   28.2930 O   0  0  0  0  0  0  0  0  0  0  0  0
    3.2490    1.0470   28.3420 C   0  0  0  0  0  0  0  0  0  0  0  0
    5.5940   -4.6870   23.3750 C   0  0  0  0  0  0  0  0  0  0  0  0
    6.2920   -5.2890   22.3310 C   0  0  0  0  0  0  0  0  0  0  0  0
  1  2  1  0
  2  3  2  0
  2  4  1  0
  4  5  1  0
  5  6  1  0
  6  7  1  0
  7  8  1  0
  8  9  2  0
  8 10  1  0
 10 11  1  0
 11 12  1  0
 12 13  2  0
 13 14  1  0
 14 15  2  0
 15 16  1  0
 12 17  1  0
 16 17  2  0
 17 18  1  0
 18 19  1  0
  7 20  1  0
  4 21  1  0
 20 21  1  0
M  END
