piperidine-amides-9179-covalent
     RDKit          3D

 20 20  0  0  0  0  0  0  0  0999 V2000
    7.1540   -3.2690   19.1760 C   0  0  0  0  0  0  0  0  0  0  0  0
    6.3800   -3.9980   20.1800 C   0  0  0  0  0  0  0  0  0  0  0  0
    5.2900   -4.5060   19.8680 O   0  0  0  0  0  0  0  0  0  0  0  0
    6.8850   -4.1810   21.4690 N   0  0  0  0  0  0  0  0  0  0  0  0
    7.7280   -3.1830   22.0750 C   0  0  0  0  0  0  0  0  0  0  0  0
    6.9790   -2.7440   23.2910 C   0  0  0  0  0  0  0  0  0  0  0  0
    6.5680   -3.9160   24.1240 C   0  0  0  0  0  0  0  0  0  0  0  0
    5.8200   -3.4760   25.3140 C   0  0  0  0  0  0  0  0  0  0  0  0
    4.5520   -3.5240   25.3430 O   0  0  0  0  0  0  0  0  0  0  0  0
    6.4840   -2.9710   26.4370 N   0  0  0  0  0  0  0  0  0  0  0  0
    6.2110   -3.4950   27.7870 C   0  0  0  0  0  0  0  0  0  0  0  0
    6.6230   -2.4140   28.6910 C   0  0  0  0  0  0  0  0  0  0  0  0
    7.7550   -2.1360   29.1340 O   0  0  0  0  0  0  0  0  0  0  0  0
    5.5950   -1.6530   29.0480 N   0  0  0  0  0  0  0  0  0  0  0  0
    5.0060   -0.7200   28.1610 C   0  0  0  0  0  0  0  0  0  0  0  0
    6.0940   -0.3070   27.1930 C   0  0  0  0  0  0  0  0  0  0  0  0
    5.2820   -1.5190   30.3710 O   0  0  0  0  0  0  0  0  0  0  0  0
    6.2750   -0.5710   30.7460 C   0  0  0  0  0  0  0  0  0  0  0  0
    5.7340   -4.8780   23.3480 C   0  0  0  0  0  0  0  0  0  0  0  0
    6.3650   -5.2860   22.2080 C   0  0  0  0  0  0  0  0  0  0  0  0
  1  2  1  0
  2  3  2  0
  2  4  1  0
  4  5  1  0
  5  6  1  0
  6  7  1  0
  7  8  1  0
  8  9  2  0
  8 10  1  0
 10 11  1  0
 11 12  1  0
 12 13  2  0
 12 14  1  0
 14 15  1  0
 15 16  1  0
 14 17  1  0
 17 18  1  0
  7 19  1  0
  4 20  1  0
 19 20  1  0
M  END
