piperidine-amides-3111-covalent
     RDKit          3D

 23 25  0  0  0  0  0  0  0  0999 V2000
    7.0710   -3.3710   19.3060 C   0  0  0  0  0  0  0  0  0  0  0  0
    6.3910   -4.2070   20.2890 C   0  0  0  0  0  0  0  0  0  0  0  0
    5.3640   -4.8060   19.9750 O   0  0  0  0  0  0  0  0  0  0  0  0
    6.9590   -4.3810   21.5970 N   0  0  0  0  0  0  0  0  0  0  0  0
    7.7210   -3.3080   22.1760 C   0  0  0  0  0  0  0  0  0  0  0  0
    6.9250   -2.7200   23.2860 C   0  0  0  0  0  0  0  0  0  0  0  0
    6.5830   -3.8600   24.2160 C   0  0  0  0  0  0  0  0  0  0  0  0
    5.8040   -3.2920   25.3440 C   0  0  0  0  0  0  0  0  0  0  0  0
    4.5810   -3.0570   25.2820 O   0  0  0  0  0  0  0  0  0  0  0  0
    6.5060   -3.0380   26.5350 N   0  0  0  0  0  0  0  0  0  0  0  0
    6.4790   -1.7320   27.1720 C   0  0  0  0  0  0  0  0  0  0  0  0
    6.9950   -1.6130   28.5760 C   0  0  0  0  0  0  0  0  0  0  0  0
    7.0040   -0.4240   29.2650 C   0  0  0  0  0  0  0  0  0  0  0  0
    6.5170    0.7430   28.6630 C   0  0  0  0  0  0  0  0  0  0  0  0
    6.0250    0.7360   27.3730 C   0  0  0  0  0  0  0  0  0  0  0  0
    5.9600   -0.4490   26.5280 C   0  0  0  0  0  0  0  0  0  0  0  0
    5.4690   -0.4330   25.2380 C   0  0  0  0  0  0  0  0  0  0  0  0
    6.1710   -0.2170   24.1100 N   0  0  0  0  0  0  0  0  0  0  0  0
    5.3140   -0.2500   22.9650 C   0  0  0  0  0  0  0  0  0  0  0  0
    3.9490   -0.4830   23.1420 C   0  0  0  0  0  0  0  0  0  0  0  0
    3.8220   -0.6700   24.9370 S   0  0  0  0  0  0  0  0  0  0  0  0
    5.9150   -4.9970   23.5940 C   0  0  0  0  0  0  0  0  0  0  0  0
    6.5720   -5.4680   22.4610 C   0  0  0  0  0  0  0  0  0  0  0  0
  1  2  1  0
  2  3  2  0
  2  4  1  0
  4  5  1  0
  5  6  1  0
  6  7  1  0
  7  8  1  0
  8  9  2  0
  8 10  1  0
 10 11  1  0
 11 12  2  0
 12 13  1  0
 13 14  2  0
 14 15  1  0
 11 16  1  0
 15 16  2  0
 16 17  1  0
 17 18  2  0
 18 19  1  0
 19 20  2  0
 17 21  1  0
 20 21  1  0
  7 22  1  0
  4 23  1  0
 22 23  1  0
M  END
