piperidine-amides-31457-covalent
     RDKit          3D

 22 24  0  0  0  0  0  0  0  0999 V2000
    7.2070   -4.1740   19.7960 C   0  0  0  0  0  0  0  0  0  0  0  0
    6.0480   -4.1250   20.5150 C   0  0  0  0  0  0  0  0  0  0  0  0
    5.0180   -4.2550   19.7890 O   0  0  0  0  0  0  0  0  0  0  0  0
    6.0950   -4.0600   21.9120 N   0  0  0  0  0  0  0  0  0  0  0  0
    5.8060   -5.3660   22.5690 C   0  0  0  0  0  0  0  0  0  0  0  0
    6.2810   -5.0740   24.0470 C   0  0  0  0  0  0  0  0  0  0  0  0
    5.8550   -3.6470   24.2810 C   0  0  0  0  0  0  0  0  0  0  0  0
    5.2630   -3.2690   25.7260 C   0  0  0  0  0  0  0  0  0  0  0  0
    4.3860   -2.4370   25.5690 O   0  0  0  0  0  0  0  0  0  0  0  0
    5.8130   -3.9010   26.7030 N   0  0  0  0  0  0  0  0  0  0  0  0
    5.9640   -4.6020   27.8850 C   0  0  0  0  0  0  0  0  0  0  0  0
    7.0700   -5.2000   28.4260 C   0  0  0  0  0  0  0  0  0  0  0  0
    7.9720   -4.6520   27.5320 C   0  0  0  0  0  0  0  0  0  0  0  0
    9.4740   -4.5890   27.2500 C   0  0  0  0  0  0  0  0  0  0  0  0
    9.9590   -3.7140   25.9650 C   0  0  0  0  0  0  0  0  0  0  0  0
   11.7240   -3.3570   25.2810 Br  0  0  0  0  0  0  0  0  0  0  0  0
    8.9650   -3.1020   25.2250 C   0  0  0  0  0  0  0  0  0  0  0  0
    9.6370   -2.1840   23.8670 Cl  0  0  0  0  0  0  0  0  0  0  0  0
    7.6340   -3.1270   25.4140 C   0  0  0  0  0  0  0  0  0  0  0  0
    7.2370   -3.9010   26.5530 C   0  0  0  0  0  0  0  0  0  0  0  0
    6.7240   -2.6710   23.5410 C   0  0  0  0  0  0  0  0  0  0  0  0
    7.2120   -3.3250   22.4480 C   0  0  0  0  0  0  0  0  0  0  0  0
  1  2  1  0
  2  3  2  0
  2  4  1  0
  4  5  1  0
  5  6  1  0
  6  7  1  0
  7  8  1  0
  8  9  2  0
  8 10  1  0
 10 11  1  0
 11 12  1  0
 12 13  1  0
 13 14  1  0
 14 15  2  0
 15 16  1  0
 15 17  1  0
 17 18  1  0
 17 19  2  0
 10 20  1  0
 13 20  2  0
 19 20  1  0
  7 21  1  0
  4 22  1  0
 21 22  1  0
M  END
