piperidine-amides-17093-covalent
     RDKit          3D

 20 21  0  0  0  0  0  0  0  0999 V2000
    7.1290   -3.3450   19.3180 C   0  0  0  0  0  0  0  0  0  0  0  0
    6.4560   -4.1940   20.3110 C   0  0  0  0  0  0  0  0  0  0  0  0
    5.3820   -4.7470   19.9620 O   0  0  0  0  0  0  0  0  0  0  0  0
    7.0450   -4.4240   21.5780 N   0  0  0  0  0  0  0  0  0  0  0  0
    6.5540   -5.4910   22.3750 C   0  0  0  0  0  0  0  0  0  0  0  0
    6.0420   -5.0860   23.6870 C   0  0  0  0  0  0  0  0  0  0  0  0
    6.6470   -3.8730   24.2950 C   0  0  0  0  0  0  0  0  0  0  0  0
    5.7660   -3.3580   25.3820 C   0  0  0  0  0  0  0  0  0  0  0  0
    4.6330   -2.9330   25.0910 O   0  0  0  0  0  0  0  0  0  0  0  0
    6.1660   -3.3550   26.7200 N   0  0  0  0  0  0  0  0  0  0  0  0
    5.6300   -2.5970   27.7280 C   0  0  0  0  0  0  0  0  0  0  0  0
    5.8880   -3.1740   29.0070 C   0  0  0  0  0  0  0  0  0  0  0  0
    6.7190   -4.4480   28.7390 C   0  0  1  0  0  0  0  0  0  0  0  0
    6.0870   -5.3680   29.5410 O   0  0  0  0  0  0  0  0  0  0  0  0
    6.4660   -6.5350   28.9560 C   0  0  0  0  0  0  0  0  0  0  0  0
    5.2820   -7.0780   28.1560 C   0  0  0  0  0  0  0  0  0  0  0  0
    7.6380   -6.2250   28.0040 C   0  0  0  0  0  0  0  0  0  0  0  0
    6.5710   -4.6130   27.2410 C   0  0  0  0  0  0  0  0  0  0  0  0
    6.9340   -2.7740   23.3050 C   0  0  0  0  0  0  0  0  0  0  0  0
    7.7980   -3.3710   22.2250 C   0  0  0  0  0  0  0  0  0  0  0  0
  1  2  1  0
  2  3  2  0
  2  4  1  0
  4  5  1  0
  5  6  1  0
  6  7  1  0
  7  8  1  0
  8  9  2  0
  8 10  1  0
 10 11  1  0
 11 12  1  0
 12 13  1  0
 13 14  1  1
 14 15  1  0
 15 16  1  0
 15 17  1  0
 10 18  1  0
 13 18  1  0
  7 19  1  0
  4 20  1  0
 19 20  1  0
M  END
