piperidine-amides-25910-covalent
     RDKit          3D

 25 27  0  0  0  0  0  0  0  0999 V2000
    7.0760   -3.3150   19.2860 C   0  0  0  0  0  0  0  0  0  0  0  0
    6.3880   -4.1650   20.2910 C   0  0  0  0  0  0  0  0  0  0  0  0
    5.3510   -4.7260   19.9430 O   0  0  0  0  0  0  0  0  0  0  0  0
    6.9450   -4.3460   21.5570 N   0  0  0  0  0  0  0  0  0  0  0  0
    6.6380   -5.4970   22.3620 C   0  0  0  0  0  0  0  0  0  0  0  0
    5.7610   -5.0640   23.5020 C   0  0  0  0  0  0  0  0  0  0  0  0
    6.4180   -3.8780   24.2040 C   0  0  0  0  0  0  0  0  0  0  0  0
    5.4970   -3.4040   25.2580 C   0  0  0  0  0  0  0  0  0  0  0  0
    4.4740   -2.7970   24.9300 O   0  0  0  0  0  0  0  0  0  0  0  0
    5.7550   -3.6300   26.6200 N   0  0  0  0  0  0  0  0  0  0  0  0
    6.5330   -2.7170   27.3120 C   0  0  0  0  0  0  0  0  0  0  0  0
    6.5900   -3.5790   28.5280 C   0  0  0  0  0  0  0  0  0  0  0  0
    5.5320   -4.4480   28.7000 C   0  0  2  0  0  0  0  0  0  0  0  0
    5.5500   -5.8500   28.5900 N   0  0  0  0  0  0  0  0  0  0  0  0
    6.4520   -6.6220   29.3880 C   0  0  0  0  0  0  0  0  0  0  0  0
    4.5340   -6.5560   27.8580 C   0  0  0  0  0  0  0  0  0  0  0  0
    3.4340   -7.1720   28.7050 C   0  0  0  0  0  0  0  0  0  0  0  0
    3.6350   -7.4410   30.0790 N   0  0  0  0  0  0  0  0  0  0  0  0
    2.6260   -8.0260   30.9090 C   0  0  0  0  0  0  0  0  0  0  0  0
    1.2810   -8.4010   30.3950 C   0  0  0  0  0  0  0  0  0  0  0  0
    1.0690   -8.1170   28.9470 C   0  0  0  0  0  0  0  0  0  0  0  0
    2.1600   -7.5290   28.2330 N   0  0  0  0  0  0  0  0  0  0  0  0
    4.7680   -3.7910   27.7030 C   0  0  0  0  0  0  0  0  0  0  0  0
    6.9230   -2.8000   23.3330 C   0  0  0  0  0  0  0  0  0  0  0  0
    7.7110   -3.2810   22.1790 C   0  0  0  0  0  0  0  0  0  0  0  0
  1  2  1  0
  2  3  2  0
  2  4  1  0
  4  5  1  0
  5  6  1  0
  6  7  1  0
  7  8  1  0
  8  9  2  0
  8 10  1  0
 10 11  1  0
 11 12  1  0
 12 13  1  0
 13 14  1  6
 14 15  1  0
 14 16  1  0
 16 17  1  0
 17 18  2  0
 18 19  1  0
 19 20  2  0
 20 21  1  0
 17 22  1  0
 21 22  2  0
 10 23  1  0
 13 23  1  0
  7 24  1  0
  4 25  1  0
 24 25  1  0
M  END
