piperidine-amides-19171-covalent
     RDKit          3D

 22 24  0  0  0  0  0  0  0  0999 V2000
    7.0750   -3.3760   19.4710 C   0  0  0  0  0  0  0  0  0  0  0  0
    6.3240   -4.1860   20.4080 C   0  0  0  0  0  0  0  0  0  0  0  0
    5.3740   -4.9110   19.9790 O   0  0  0  0  0  0  0  0  0  0  0  0
    6.6390   -4.1990   21.7730 N   0  0  0  0  0  0  0  0  0  0  0  0
    6.6060   -5.5200   22.4620 C   0  0  0  0  0  0  0  0  0  0  0  0
    6.0470   -5.1540   23.9090 C   0  0  0  0  0  0  0  0  0  0  0  0
    6.0570   -3.6520   23.9730 C   0  0  0  0  0  0  0  0  0  0  0  0
    5.5020   -2.9450   25.2980 C   0  0  0  0  0  0  0  0  0  0  0  0
    4.5670   -2.2310   25.0000 O   0  0  0  0  0  0  0  0  0  0  0  0
    6.1360   -3.2790   26.3540 N   0  0  0  0  0  0  0  0  0  0  0  0
    6.6480   -4.1360   27.2880 C   0  0  0  0  0  0  0  0  0  0  0  0
    6.2890   -2.0190   27.0360 C   0  0  0  0  0  0  0  0  0  0  0  0
    6.8560   -1.9310   28.3580 C   0  0  0  0  0  0  0  0  0  0  0  0
    7.0880   -0.7090   29.2350 C   0  0  0  0  0  0  0  0  0  0  0  0
    6.6020    0.5760   28.5000 C   0  0  0  0  0  0  0  0  0  0  0  0
    6.1330    0.2220   27.3190 C   0  0  0  0  0  0  0  0  0  0  0  0
    5.9180   -0.8580   26.5110 C   0  0  0  0  0  0  0  0  0  0  0  0
    5.6190    1.2600   26.4350 C   0  0  0  0  0  0  0  0  0  0  0  0
    5.9740    2.3580   27.5410 C   0  0  0  0  0  0  0  0  0  0  0  0
    6.5020    1.9760   28.6800 O   0  0  0  0  0  0  0  0  0  0  0  0
    7.4160   -3.1380   23.5750 C   0  0  0  0  0  0  0  0  0  0  0  0
    7.5810   -3.2010   22.2390 C   0  0  0  0  0  0  0  0  0  0  0  0
  1  2  1  0
  2  3  2  0
  2  4  1  0
  4  5  1  0
  5  6  1  0
  6  7  1  0
  7  8  1  0
  8  9  2  0
  8 10  1  0
 10 11  1  0
 10 12  1  0
 12 13  2  0
 13 14  1  0
 14 15  2  0
 15 16  1  0
 12 17  1  0
 16 17  2  0
 16 18  1  0
 18 19  1  0
 15 20  1  0
 19 20  1  0
  7 21  1  0
  4 22  1  0
 21 22  1  0
M  END
