piperidine-amides-14029-covalent
     RDKit          3D

 25 27  0  0  0  0  0  0  0  0999 V2000
    7.1390   -3.2780   19.2260 C   0  0  0  0  0  0  0  0  0  0  0  0
    6.3940   -4.0790   20.2330 C   0  0  0  0  0  0  0  0  0  0  0  0
    5.3090   -4.5920   19.9070 O   0  0  0  0  0  0  0  0  0  0  0  0
    6.9660   -4.2820   21.5040 N   0  0  0  0  0  0  0  0  0  0  0  0
    7.6860   -3.2360   22.1770 C   0  0  0  0  0  0  0  0  0  0  0  0
    6.7480   -2.7290   23.2680 C   0  0  0  0  0  0  0  0  0  0  0  0
    6.4060   -3.8840   24.1560 C   0  0  0  0  0  0  0  0  0  0  0  0
    5.7440   -3.4040   25.3820 C   0  0  0  0  0  0  0  0  0  0  0  0
    4.5150   -3.5250   25.4140 O   0  0  0  0  0  0  0  0  0  0  0  0
    6.4840   -2.8400   26.4250 N   0  0  0  0  0  0  0  0  0  0  0  0
    6.3400   -1.5260   26.9310 C   0  0  0  0  0  0  0  0  0  0  0  0
    5.1260   -0.8780   27.0180 C   0  0  1  0  0  0  0  0  0  0  0  0
    3.9690   -1.5640   27.4790 C   0  0  0  0  0  0  0  0  0  0  0  0
    3.9160   -2.0310   28.7880 C   0  0  0  0  0  0  0  0  0  0  0  0
    4.0810   -0.8330   30.0850 S   0  0  0  0  0  0  0  0  0  0  0  0
    2.6730   -0.4810   30.5350 O   0  0  0  0  0  0  0  0  0  0  0  0
    4.9280   -1.3810   31.1870 O   0  0  0  0  0  0  0  0  0  0  0  0
    4.8370    0.5600   29.2630 C   0  0  0  0  0  0  0  0  0  0  0  0
    5.0840    1.9270   29.8810 C   0  0  0  0  0  0  0  0  0  0  0  0
    5.7400    2.9020   28.9290 C   0  0  0  0  0  0  0  0  0  0  0  0
    6.0900    2.6180   27.6290 C   0  0  0  0  0  0  0  0  0  0  0  0
    5.9230    1.3430   26.8720 C   0  0  0  0  0  0  0  0  0  0  0  0
    5.2560    0.3570   27.8480 C   0  0  0  0  0  0  0  0  0  0  0  0
    5.6150   -4.8520   23.3730 C   0  0  0  0  0  0  0  0  0  0  0  0
    6.5560   -5.4070   22.2910 C   0  0  0  0  0  0  0  0  0  0  0  0
  1  2  1  0
  2  3  2  0
  2  4  1  0
  4  5  1  0
  5  6  1  0
  6  7  1  0
  7  8  1  0
  8  9  2  0
  8 10  1  0
 10 11  1  0
 12 11  1  1
 12 13  1  0
 13 14  1  0
 15 14  1  0
 15 16  2  0
 15 17  2  0
 15 18  1  0
 18 19  2  0
 19 20  1  0
 20 21  2  0
 21 22  1  0
 12 23  1  0
 18 23  1  0
 22 23  2  0
  7 24  1  0
  4 25  1  0
 24 25  1  0
M  END
