piperidine-amides-14834-covalent
     RDKit          3D

 21 23  0  0  0  0  0  0  0  0999 V2000
    7.1020   -3.2820   19.2410 C   0  0  0  0  0  0  0  0  0  0  0  0
    6.3860   -4.0640   20.2480 C   0  0  0  0  0  0  0  0  0  0  0  0
    5.3210   -4.6140   19.9130 O   0  0  0  0  0  0  0  0  0  0  0  0
    6.9290   -4.2310   21.5460 N   0  0  0  0  0  0  0  0  0  0  0  0
    7.6890   -3.1660   22.1390 C   0  0  0  0  0  0  0  0  0  0  0  0
    6.9400   -2.6260   23.3120 C   0  0  0  0  0  0  0  0  0  0  0  0
    6.6230   -3.8160   24.1820 C   0  0  0  0  0  0  0  0  0  0  0  0
    5.8030   -3.3790   25.3590 C   0  0  0  0  0  0  0  0  0  0  0  0
    4.6030   -3.6470   25.3170 O   0  0  0  0  0  0  0  0  0  0  0  0
    6.4350   -2.7020   26.3980 N   0  0  0  0  0  0  0  0  0  0  0  0
    6.2320   -1.3050   26.5940 C   0  0  0  0  0  0  0  0  0  0  0  0
    6.4320   -0.8320   27.9010 C   0  0  2  0  0  0  0  0  0  0  0  0
    6.2920   -1.7550   28.9210 C   0  0  0  0  0  0  0  0  0  0  0  0
    5.3750   -1.5410   29.9220 C   0  0  0  0  0  0  0  0  0  0  0  0
    4.9260   -0.2030   29.4930 C   0  0  0  0  0  0  0  0  0  0  0  0
    5.8360    0.3640   28.3830 C   0  0  2  0  0  0  0  0  0  0  0  0
    5.0590    1.3040   27.5220 C   0  0  0  0  0  0  0  0  0  0  0  0
    5.9000    1.9470   26.6600 C   0  0  0  0  0  0  0  0  0  0  0  0
    4.5750    1.1290   26.1980 C   0  0  0  0  0  0  0  0  0  0  0  0
    5.7750   -4.8110   23.4180 C   0  0  0  0  0  0  0  0  0  0  0  0
    6.5160   -5.3300   22.3760 C   0  0  0  0  0  0  0  0  0  0  0  0
  1  2  1  0
  2  3  2  0
  2  4  1  0
  4  5  1  0
  5  6  1  0
  6  7  1  0
  7  8  1  0
  8  9  2  0
  8 10  1  0
 10 11  1  0
 12 11  1  6
 12 13  1  0
 13 14  1  0
 14 15  1  0
 12 16  1  0
 15 16  1  0
 16 17  1  6
 17 18  1  0
 17 19  1  0
 18 19  1  0
  7 20  1  0
  4 21  1  0
 20 21  1  0
M  END
