piperidine-amides-8722-covalent
     RDKit          3D

 23 24  0  0  0  0  0  0  0  0999 V2000
    7.0670   -3.2940   19.2750 C   0  0  0  0  0  0  0  0  0  0  0  0
    6.2930   -4.0600   20.2530 C   0  0  0  0  0  0  0  0  0  0  0  0
    5.2380   -4.5950   19.8830 O   0  0  0  0  0  0  0  0  0  0  0  0
    6.7710   -4.2100   21.5720 N   0  0  0  0  0  0  0  0  0  0  0  0
    7.5420   -3.1380   22.1240 C   0  0  0  0  0  0  0  0  0  0  0  0
    7.5020   -3.2210   23.6130 C   0  0  0  0  0  0  0  0  0  0  0  0
    6.1570   -3.7670   24.0050 C   0  0  0  0  0  0  0  0  0  0  0  0
    5.8340   -3.5090   25.4580 C   0  0  0  0  0  0  0  0  0  0  0  0
    4.6350   -3.3670   25.6940 O   0  0  0  0  0  0  0  0  0  0  0  0
    6.8410   -3.4270   26.4430 N   0  0  0  0  0  0  0  0  0  0  0  0
    8.1280   -4.0410   26.3610 C   0  0  0  0  0  0  0  0  0  0  0  0
    9.0280   -3.3140   25.5620 C   0  0  0  0  0  0  0  0  0  0  0  0
    8.6410   -2.1360   24.9400 C   0  0  0  0  0  0  0  0  0  0  0  0
    9.4610   -1.3520   24.1120 C   0  0  0  0  0  0  0  0  0  0  0  0
   10.8500   -1.8480   23.9140 C   0  0  0  0  0  0  0  0  0  0  0  0
   11.6300   -1.0580   23.0940 O   0  0  0  0  0  0  0  0  0  0  0  0
   12.9540   -1.0860   23.5100 C   0  0  0  0  0  0  0  0  0  0  0  0
   13.4100   -2.4200   23.9420 C   0  0  0  0  0  0  0  0  0  0  0  0
   13.7480   -2.6170   25.3870 C   0  0  0  0  0  0  0  0  0  0  0  0
   11.2330   -3.0460   24.5630 C   0  0  0  0  0  0  0  0  0  0  0  0
   10.3400   -3.7170   25.3380 C   0  0  0  0  0  0  0  0  0  0  0  0
    6.2020   -5.2370   23.7250 C   0  0  0  0  0  0  0  0  0  0  0  0
    6.4940   -5.4520   22.2580 C   0  0  0  0  0  0  0  0  0  0  0  0
  1  2  1  0
  2  3  2  0
  2  4  1  0
  4  5  1  0
  5  6  1  0
  6  7  1  0
  7  8  1  0
  8  9  2  0
  8 10  1  0
 10 11  1  0
 11 12  1  0
 12 13  2  0
 13 14  1  0
 14 15  2  0
 15 16  1  0
 16 17  1  0
 17 18  1  0
 18 19  2  3
 15 20  1  0
 12 21  1  0
 20 21  2  0
  7 22  1  0
  4 23  1  0
 22 23  1  0
M  END
