piperidine-amides-8214-covalent
     RDKit          3D

 25 26  0  0  0  0  0  0  0  0999 V2000
    7.1010   -3.2920   19.2570 C   0  0  0  0  0  0  0  0  0  0  0  0
    6.3220   -4.0320   20.2490 C   0  0  0  0  0  0  0  0  0  0  0  0
    5.2580   -4.5560   19.8840 O   0  0  0  0  0  0  0  0  0  0  0  0
    6.8070   -4.1900   21.5720 N   0  0  0  0  0  0  0  0  0  0  0  0
    6.4020   -5.3470   22.3090 C   0  0  0  0  0  0  0  0  0  0  0  0
    6.1880   -4.9690   23.7520 C   0  0  0  0  0  0  0  0  0  0  0  0
    5.8180   -3.4960   23.7940 C   0  0  0  0  0  0  0  0  0  0  0  0
    5.1970   -3.1120   25.1240 C   0  0  0  0  0  0  0  0  0  0  0  0
    3.9720   -3.1580   25.1480 O   0  0  0  0  0  0  0  0  0  0  0  0
    5.9760   -2.7360   26.2260 N   0  0  0  0  0  0  0  0  0  0  0  0
    6.1350   -3.5770   27.3710 C   0  0  1  0  0  0  0  0  0  0  0  0
    5.1940   -4.6020   27.5620 C   0  0  0  0  0  0  0  0  0  0  0  0
    4.3170   -4.5880   28.4490 O   0  0  0  0  0  0  0  0  0  0  0  0
    5.2020   -5.6990   26.7290 O   0  0  0  0  0  0  0  0  0  0  0  0
    4.3480   -6.7720   26.6340 C   0  0  0  0  0  0  0  0  0  0  0  0
    7.3510   -4.2700   27.0180 C   0  0  0  0  0  0  0  0  0  0  0  0
    7.8220   -3.8250   25.6830 C   0  0  0  0  0  0  0  0  0  0  0  0
    9.0750   -4.4210   25.0660 C   0  0  0  0  0  0  0  0  0  0  0  0
    9.7540   -5.4350   25.8790 C   0  0  0  0  0  0  0  0  0  0  0  0
    9.2280   -5.8070   27.1940 C   0  0  0  0  0  0  0  0  0  0  0  0
    7.9820   -5.2090   27.7890 C   0  0  0  0  0  0  0  0  0  0  0  0
    7.4650   -5.5490   29.0190 O   0  0  0  0  0  0  0  0  0  0  0  0
    6.3940   -6.4720   29.0400 C   0  0  0  0  0  0  0  0  0  0  0  0
    7.0570   -2.6990   23.4930 C   0  0  0  0  0  0  0  0  0  0  0  0
    7.5720   -3.1010   22.1370 C   0  0  0  0  0  0  0  0  0  0  0  0
  1  2  1  0
  2  3  2  0
  2  4  1  0
  4  5  1  0
  5  6  1  0
  6  7  1  0
  7  8  1  0
  8  9  2  0
  8 10  1  0
 11 10  1  6
 11 12  1  0
 12 13  2  0
 12 14  1  0
 14 15  1  0
 11 16  1  0
 16 17  2  0
 17 18  1  0
 18 19  2  0
 19 20  1  0
 16 21  1  0
 20 21  2  0
 21 22  1  0
 22 23  1  0
  7 24  1  0
  4 25  1  0
 24 25  1  0
M  END
