piperidine-amides-30197-covalent
     RDKit          3D

 27 29  0  0  0  0  0  0  0  0999 V2000
    7.0410   -3.3730   19.3600 C   0  0  0  0  0  0  0  0  0  0  0  0
    6.3700   -4.2330   20.3280 C   0  0  0  0  0  0  0  0  0  0  0  0
    5.3620   -4.8480   19.9840 O   0  0  0  0  0  0  0  0  0  0  0  0
    6.9110   -4.4140   21.6490 N   0  0  0  0  0  0  0  0  0  0  0  0
    7.6560   -3.3740   22.3070 C   0  0  0  0  0  0  0  0  0  0  0  0
    6.8480   -2.7800   23.4260 C   0  0  0  0  0  0  0  0  0  0  0  0
    6.3280   -3.8950   24.3330 C   0  0  0  0  0  0  0  0  0  0  0  0
    5.2990   -3.3270   25.2660 C   0  0  0  0  0  0  0  0  0  0  0  0
    4.3820   -2.6190   24.8280 O   0  0  0  0  0  0  0  0  0  0  0  0
    5.3230   -3.5690   26.6730 N   0  0  0  0  0  0  0  0  0  0  0  0
    6.5160   -3.2890   27.3240 C   0  0  0  0  0  0  0  0  0  0  0  0
    6.6460   -4.4390   28.3060 C   0  0  0  0  0  0  0  0  0  0  0  0
    5.5930   -4.5250   29.1440 C   0  0  0  0  0  0  0  0  0  0  0  0
    5.4730   -5.7950   29.8290 N   0  0  0  0  0  0  0  0  0  0  0  0
    4.3540   -5.8660   30.7540 C   0  0  0  0  0  0  0  0  0  0  0  0
    3.3660   -4.8740   30.7150 O   0  0  0  0  0  0  0  0  0  0  0  0
    4.2630   -6.9020   31.6750 C   0  0  0  0  0  0  0  0  0  0  0  0
    5.2690   -7.2280   32.6720 C   0  0  0  0  0  0  0  0  0  0  0  0
    5.1810   -8.2360   33.5840 C   0  0  0  0  0  0  0  0  0  0  0  0
    4.0750   -9.0380   33.6130 C   0  0  0  0  0  0  0  0  0  0  0  0
    3.0440   -8.8130   32.6990 C   0  0  0  0  0  0  0  0  0  0  0  0
    3.1340   -7.7220   31.7020 C   0  0  0  0  0  0  0  0  0  0  0  0
    2.0590   -7.6070   30.8690 F   0  0  0  0  0  0  0  0  0  0  0  0
    4.3440   -4.3100   28.6200 C   0  0  0  0  0  0  0  0  0  0  0  0
    4.2500   -3.3400   27.6090 C   0  0  0  0  0  0  0  0  0  0  0  0
    5.6610   -5.0130   23.5520 C   0  0  0  0  0  0  0  0  0  0  0  0
    6.5690   -5.5600   22.4420 C   0  0  0  0  0  0  0  0  0  0  0  0
  1  2  1  0
  2  3  2  0
  2  4  1  0
  4  5  1  0
  5  6  1  0
  6  7  1  0
  7  8  1  0
  8  9  2  0
  8 10  1  0
 10 11  1  0
 11 12  1  0
 12 13  1  0
 13 14  1  0
 14 15  1  0
 15 16  2  0
 15 17  1  0
 17 18  2  0
 18 19  1  0
 19 20  2  0
 20 21  1  0
 17 22  1  0
 21 22  2  0
 22 23  1  0
 13 24  1  0
 10 25  1  0
 24 25  1  0
  7 26  1  0
  4 27  1  0
 26 27  1  0
M  END
