piperidine-amides-11922-covalent
     RDKit          3D

 26 28  0  0  0  0  0  0  0  0999 V2000
    7.1160   -3.3420   19.3150 C   0  0  0  0  0  0  0  0  0  0  0  0
    6.3230   -4.1410   20.2430 C   0  0  0  0  0  0  0  0  0  0  0  0
    5.2460   -4.6130   19.8970 O   0  0  0  0  0  0  0  0  0  0  0  0
    6.8350   -4.4300   21.5440 N   0  0  0  0  0  0  0  0  0  0  0  0
    7.7330   -3.4930   22.1650 C   0  0  0  0  0  0  0  0  0  0  0  0
    7.0320   -2.8000   23.2640 C   0  0  0  0  0  0  0  0  0  0  0  0
    6.5340   -3.8840   24.1820 C   0  0  0  0  0  0  0  0  0  0  0  0
    5.9950   -3.1900   25.3680 C   0  0  0  0  0  0  0  0  0  0  0  0
    4.8520   -3.3430   25.8470 O   0  0  0  0  0  0  0  0  0  0  0  0
    6.9450   -2.3020   25.9040 N   0  0  0  0  0  0  0  0  0  0  0  0
    6.6670   -1.3350   26.9220 C   0  0  0  0  0  0  0  0  0  0  0  0
    6.9520   -1.6050   28.3640 C   0  0  0  0  0  0  0  0  0  0  0  0
    6.7030   -0.6600   29.3340 C   0  0  0  0  0  0  0  0  0  0  0  0
    6.1650    0.5900   28.9840 C   0  0  0  0  0  0  0  0  0  0  0  0
    5.8490    1.7830   30.2360 Cl  0  0  0  0  0  0  0  0  0  0  0  0
    5.8690    0.9250   27.6760 C   0  0  0  0  0  0  0  0  0  0  0  0
    6.0910    0.0190   26.5650 C   0  0  0  0  0  0  0  0  0  0  0  0
    5.8280    0.3130   25.2420 C   0  0  0  0  0  0  0  0  0  0  0  0
    6.4510   -0.2480   24.1490 C   0  0  0  0  0  0  0  0  0  0  0  0
    6.1530    0.0900   22.8460 C   0  0  0  0  0  0  0  0  0  0  0  0
    5.1300    1.0920   22.6300 C   0  0  0  0  0  0  0  0  0  0  0  0
    4.4650    1.6970   23.6760 C   0  0  0  0  0  0  0  0  0  0  0  0
    3.2210    2.9220   23.4490 Cl  0  0  0  0  0  0  0  0  0  0  0  0
    4.8400    1.2810   24.9690 C   0  0  0  0  0  0  0  0  0  0  0  0
    5.5220   -4.7570   23.4960 C   0  0  0  0  0  0  0  0  0  0  0  0
    6.2510   -5.4780   22.3490 C   0  0  0  0  0  0  0  0  0  0  0  0
  1  2  1  0
  2  3  2  0
  2  4  1  0
  4  5  1  0
  5  6  1  0
  6  7  1  0
  7  8  1  0
  8  9  2  0
  8 10  1  0
 10 11  1  0
 11 12  2  0
 12 13  1  0
 13 14  2  0
 14 15  1  0
 14 16  1  0
 11 17  1  0
 16 17  2  0
 17 18  1  0
 18 19  2  0
 19 20  1  0
 20 21  2  0
 21 22  1  0
 22 23  1  0
 18 24  1  0
 22 24  2  0
  7 25  1  0
  4 26  1  0
 25 26  1  0
M  END
