piperidine-amides-29424-covalent
     RDKit          3D

 22 24  0  0  0  0  0  0  0  0999 V2000
    7.0860   -3.3190   19.2990 C   0  0  0  0  0  0  0  0  0  0  0  0
    6.3650   -4.1320   20.2780 C   0  0  0  0  0  0  0  0  0  0  0  0
    5.3110   -4.6850   19.9280 O   0  0  0  0  0  0  0  0  0  0  0  0
    6.8950   -4.3240   21.5760 N   0  0  0  0  0  0  0  0  0  0  0  0
    6.6350   -5.5760   22.2330 C   0  0  0  0  0  0  0  0  0  0  0  0
    5.7710   -5.3170   23.4190 C   0  0  0  0  0  0  0  0  0  0  0  0
    6.5010   -4.2660   24.2050 C   0  0  0  0  0  0  0  0  0  0  0  0
    5.6150   -3.8410   25.3310 C   0  0  0  0  0  0  0  0  0  0  0  0
    4.6210   -3.1900   25.0160 O   0  0  0  0  0  0  0  0  0  0  0  0
    5.9470   -4.1790   26.6330 N   0  0  0  0  0  0  0  0  0  0  0  0
    5.0410   -4.9280   27.3920 C   0  0  0  0  0  0  0  0  0  0  0  0
    4.7680   -4.1850   28.4730 C   0  0  0  0  0  0  0  0  0  0  0  0
    5.6820   -3.1950   28.4610 C   0  0  0  0  0  0  0  0  0  0  0  0
    5.6980   -2.2570   29.6700 C   0  0  0  0  0  0  0  0  0  0  0  0
    6.7110   -1.0690   29.8360 C   0  0  0  0  0  0  0  0  0  0  0  0
    6.8490    0.1850   31.2790 Br  0  0  0  0  0  0  0  0  0  0  0  0
    7.4570   -1.2280   28.6220 C   0  0  0  0  0  0  0  0  0  0  0  0
    6.6260   -2.2790   28.3580 C   0  0  0  0  0  0  0  0  0  0  0  0
    5.7580   -2.3910   29.4210 F   0  0  0  0  0  0  0  0  0  0  0  0
    6.5920   -3.0690   27.2990 C   0  0  0  0  0  0  0  0  0  0  0  0
    6.8940   -3.0460   23.4820 C   0  0  0  0  0  0  0  0  0  0  0  0
    7.5670   -3.2670   22.3080 C   0  0  0  0  0  0  0  0  0  0  0  0
  1  2  1  0
  2  3  2  0
  2  4  1  0
  4  5  1  0
  5  6  1  0
  6  7  1  0
  7  8  1  0
  8  9  2  0
  8 10  1  0
 10 11  1  0
 11 12  1  0
 12 13  1  0
 13 14  1  0
 14 15  2  0
 15 16  1  0
 15 17  1  0
 17 18  2  0
 18 19  1  0
 10 20  1  0
 13 20  2  0
 18 20  1  0
  7 21  1  0
  4 22  1  0
 21 22  1  0
M  END
