piperidine-amides-25185-covalent
     RDKit          3D

 20 21  0  0  0  0  0  0  0  0999 V2000
    7.0280   -3.3380   19.3350 C   0  0  0  0  0  0  0  0  0  0  0  0
    6.3580   -4.1910   20.3510 C   0  0  0  0  0  0  0  0  0  0  0  0
    5.3670   -4.8150   19.9770 O   0  0  0  0  0  0  0  0  0  0  0  0
    6.8720   -4.3020   21.6510 N   0  0  0  0  0  0  0  0  0  0  0  0
    6.6850   -5.5060   22.4230 C   0  0  0  0  0  0  0  0  0  0  0  0
    6.1680   -5.1840   23.8040 C   0  0  0  0  0  0  0  0  0  0  0  0
    6.0100   -3.6720   24.0080 C   0  0  0  0  0  0  0  0  0  0  0  0
    5.5650   -3.3960   25.4000 C   0  0  0  0  0  0  0  0  0  0  0  0
    4.3670   -3.5580   25.6550 O   0  0  0  0  0  0  0  0  0  0  0  0
    6.4070   -2.9450   26.4450 N   0  0  0  0  0  0  0  0  0  0  0  0
    6.5410   -3.8610   27.5620 C   0  0  0  0  0  0  0  0  0  0  0  0
    6.3120   -1.5460   26.7390 C   0  0  0  0  0  0  0  0  0  0  0  0
    5.9890   -0.6680   25.6060 N   0  0  0  0  0  0  0  0  0  0  0  0
    5.8840    0.7650   25.9370 C   0  0  0  0  0  0  0  0  0  0  0  0
    6.0820    1.1730   27.2210 C   0  0  0  0  0  0  0  0  0  0  0  0
    5.9340    3.0270   27.5960 Br  0  0  0  0  0  0  0  0  0  0  0  0
    6.3820    0.3190   28.2490 C   0  0  0  0  0  0  0  0  0  0  0  0
    6.4760   -0.9710   27.9410 N   0  0  0  0  0  0  0  0  0  0  0  0
    7.2800   -2.9320   23.6340 C   0  0  0  0  0  0  0  0  0  0  0  0
    7.6340   -3.2340   22.2190 C   0  0  0  0  0  0  0  0  0  0  0  0
  1  2  1  0
  2  3  2  0
  2  4  1  0
  4  5  1  0
  5  6  1  0
  6  7  1  0
  7  8  1  0
  8  9  2  0
  8 10  1  0
 10 11  1  0
 10 12  1  0
 12 13  2  0
 13 14  1  0
 14 15  2  0
 15 16  1  0
 15 17  1  0
 12 18  1  0
 17 18  2  0
  7 19  1  0
  4 20  1  0
 19 20  1  0
M  END
