piperidine-amides-12903-covalent
     RDKit          3D

 21 21  0  0  0  0  0  0  0  0999 V2000
    7.0600   -3.3060   19.2300 C   0  0  0  0  0  0  0  0  0  0  0  0
    6.3670   -4.0830   20.2840 C   0  0  0  0  0  0  0  0  0  0  0  0
    5.3230   -4.6690   19.9310 O   0  0  0  0  0  0  0  0  0  0  0  0
    6.8850   -4.1910   21.5910 N   0  0  0  0  0  0  0  0  0  0  0  0
    6.6090   -5.3580   22.3630 C   0  0  0  0  0  0  0  0  0  0  0  0
    6.0430   -5.0520   23.6770 C   0  0  0  0  0  0  0  0  0  0  0  0
    6.0240   -3.6040   23.9700 C   0  0  0  0  0  0  0  0  0  0  0  0
    5.5580   -3.3000   25.3510 C   0  0  0  0  0  0  0  0  0  0  0  0
    4.4050   -2.8490   25.4720 O   0  0  0  0  0  0  0  0  0  0  0  0
    6.3530   -3.4970   26.5020 N   0  0  0  0  0  0  0  0  0  0  0  0
    6.0800   -4.5430   27.5280 C   0  0  1  0  0  0  0  0  0  0  0  0
    6.3700   -4.0540   28.8910 C   0  0  0  0  0  0  0  0  0  0  0  0
    6.1710   -2.8510   29.2270 O   0  0  0  0  0  0  0  0  0  0  0  0
    4.7420   -5.1010   27.4070 C   0  0  0  0  0  0  0  0  0  0  0  0
    4.4400   -5.8660   26.3060 C   0  0  0  0  0  0  0  0  0  0  0  0
    3.3660   -6.7270   26.3320 C   0  0  0  0  0  0  0  0  0  0  0  0
    3.4420   -7.6740   25.3550 C   0  0  0  0  0  0  0  0  0  0  0  0
    2.2520   -5.7630   26.5890 C   0  0  0  0  0  0  0  0  0  0  0  0
    3.3360   -7.5550   27.4230 C   0  0  0  0  0  0  0  0  0  0  0  0
    7.3600   -2.9940   23.6370 C   0  0  0  0  0  0  0  0  0  0  0  0
    7.7080   -3.1510   22.2030 C   0  0  0  0  0  0  0  0  0  0  0  0
  1  2  1  0
  2  3  2  0
  2  4  1  0
  4  5  1  0
  5  6  1  0
  6  7  1  0
  7  8  1  0
  8  9  2  0
  8 10  1  0
 10 11  1  0
 11 12  1  1
 12 13  1  0
 11 14  1  0
 14 15  1  0
 16 15  1  0
 16 17  1  0
 16 18  1  0
 16 19  1  0
  7 20  1  0
  4 21  1  0
 20 21  1  0
M  END
