piperidine-amides-5486-covalent
     RDKit          3D

 19 20  0  0  0  0  0  0  0  0999 V2000
    7.0600   -3.3460   19.3240 C   0  0  0  0  0  0  0  0  0  0  0  0
    6.3890   -4.1660   20.3370 C   0  0  0  0  0  0  0  0  0  0  0  0
    5.4110   -4.8530   19.9920 O   0  0  0  0  0  0  0  0  0  0  0  0
    6.8660   -4.2170   21.6630 N   0  0  0  0  0  0  0  0  0  0  0  0
    7.7530   -3.1890   22.1720 C   0  0  0  0  0  0  0  0  0  0  0  0
    7.4660   -3.0720   23.6400 C   0  0  0  0  0  0  0  0  0  0  0  0
    6.1130   -3.6250   23.9580 C   0  0  0  0  0  0  0  0  0  0  0  0
    5.6350   -3.3330   25.3320 C   0  0  0  0  0  0  0  0  0  0  0  0
    4.4300   -3.5680   25.6410 O   0  0  0  0  0  0  0  0  0  0  0  0
    6.4460   -2.7760   26.3490 N   0  0  0  0  0  0  0  0  0  0  0  0
    5.9730   -1.6040   27.1320 C   0  0  1  0  0  0  0  0  0  0  0  0
    7.0440   -1.3640   28.1290 C   0  0  0  0  0  0  0  0  0  0  0  0
    6.7850   -0.3730   29.1660 C   0  0  0  0  0  0  0  0  0  0  0  0
    6.4360    0.6520   28.5870 O   0  0  0  0  0  0  0  0  0  0  0  0
    5.3360    0.4030   27.7740 C   0  0  0  0  0  0  0  0  0  0  0  0
    5.5920   -0.3810   26.4880 C   0  0  1  0  0  0  0  0  0  0  0  0
    6.3530    0.1660   25.6180 O   0  0  0  0  0  0  0  0  0  0  0  0
    6.1120   -5.0960   23.6920 C   0  0  0  0  0  0  0  0  0  0  0  0
    6.5450   -5.3970   22.4200 C   0  0  0  0  0  0  0  0  0  0  0  0
  1  2  1  0
  2  3  2  0
  2  4  1  0
  4  5  1  0
  5  6  1  0
  6  7  1  0
  7  8  1  0
  8  9  2  0
  8 10  1  0
 11 10  1  6
 11 12  1  0
 12 13  1  0
 13 14  1  0
 14 15  1  0
 11 16  1  0
 15 16  1  0
 16 17  1  1
  7 18  1  0
  4 19  1  0
 18 19  1  0
M  END
