piperidine-amides-24948-covalent
     RDKit          3D

 23 24  0  0  0  0  0  0  0  0999 V2000
    7.0700   -3.3160   19.3320 C   0  0  0  0  0  0  0  0  0  0  0  0
    6.3800   -4.1740   20.3070 C   0  0  0  0  0  0  0  0  0  0  0  0
    5.3600   -4.8140   19.9700 O   0  0  0  0  0  0  0  0  0  0  0  0
    6.8820   -4.3280   21.6070 N   0  0  0  0  0  0  0  0  0  0  0  0
    7.6950   -3.2880   22.2010 C   0  0  0  0  0  0  0  0  0  0  0  0
    6.9180   -2.7580   23.4040 C   0  0  0  0  0  0  0  0  0  0  0  0
    6.5580   -3.9650   24.2340 C   0  0  0  0  0  0  0  0  0  0  0  0
    5.8430   -3.5230   25.4520 C   0  0  0  0  0  0  0  0  0  0  0  0
    4.6520   -3.8720   25.5870 O   0  0  0  0  0  0  0  0  0  0  0  0
    6.4780   -2.6870   26.4040 N   0  0  0  0  0  0  0  0  0  0  0  0
    6.3890   -2.9530   27.8270 C   0  0  0  0  0  0  0  0  0  0  0  0
    6.3580   -4.4440   28.1110 C   0  0  0  0  0  0  0  0  0  0  0  0
    5.9150   -5.5160   28.9180 O   0  0  0  0  0  0  0  0  0  0  0  0
    5.6010   -3.6940   29.0680 O   0  0  0  0  0  0  0  0  0  0  0  0
    4.2190   -3.8860   29.1940 C   0  0  0  0  0  0  0  0  0  0  0  0
    6.3140   -1.2860   26.7020 C   0  0  0  0  0  0  0  0  0  0  0  0
    6.4850   -0.6570   27.9880 N   0  0  0  0  0  0  0  0  0  0  0  0
    6.2780    0.6870   28.0840 C   0  0  0  0  0  0  0  0  0  0  0  0
    6.4140    1.3780   29.2640 C   0  0  0  0  0  0  0  0  0  0  0  0
    5.8870    1.3680   26.8070 C   0  0  0  0  0  0  0  0  0  0  0  0
    5.8450    0.0750   25.6010 S   0  0  0  0  0  0  0  0  0  0  0  0
    5.7580   -4.9810   23.4810 C   0  0  0  0  0  0  0  0  0  0  0  0
    6.6190   -5.5180   22.3850 C   0  0  0  0  0  0  0  0  0  0  0  0
  1  2  1  0
  2  3  2  0
  2  4  1  0
  4  5  1  0
  5  6  1  0
  6  7  1  0
  7  8  1  0
  8  9  2  0
  8 10  1  0
 10 11  1  0
 11 12  1  0
 12 13  2  0
 12 14  1  0
 14 15  1  0
 10 16  1  0
 16 17  2  0
 17 18  1  0
 18 19  1  0
 18 20  2  0
 16 21  1  0
 20 21  1  0
  7 22  1  0
  4 23  1  0
 22 23  1  0
M  END
