piperidine-amides-17143-covalent
     RDKit          3D

 20 21  0  0  0  0  0  0  0  0999 V2000
    7.0040   -3.3880   19.4080 C   0  0  0  0  0  0  0  0  0  0  0  0
    6.3830   -4.2540   20.4270 C   0  0  0  0  0  0  0  0  0  0  0  0
    5.4270   -4.9600   20.0150 O   0  0  0  0  0  0  0  0  0  0  0  0
    6.8610   -4.3220   21.7770 N   0  0  0  0  0  0  0  0  0  0  0  0
    6.5210   -5.4570   22.5750 C   0  0  0  0  0  0  0  0  0  0  0  0
    5.9620   -5.1020   23.8850 C   0  0  0  0  0  0  0  0  0  0  0  0
    5.8340   -3.6410   24.0760 C   0  0  0  0  0  0  0  0  0  0  0  0
    4.9650   -3.2100   25.2750 C   0  0  0  0  0  0  0  0  0  0  0  0
    3.7850   -2.9490   25.0180 O   0  0  0  0  0  0  0  0  0  0  0  0
    5.3370   -3.0750   26.6480 N   0  0  0  0  0  0  0  0  0  0  0  0
    4.5260   -3.0060   27.7920 C   0  0  0  0  0  0  0  0  0  0  0  0
    5.0030   -3.6320   29.0320 C   0  0  0  0  0  0  0  0  0  0  0  0
    4.6440   -5.1310   28.9610 C   0  0  2  0  0  0  0  0  0  0  0  0
    5.4700   -6.0820   29.5420 C   0  0  0  0  0  0  0  0  0  0  0  0
    4.9370   -5.3800   27.6560 O   0  0  0  0  0  0  0  0  0  0  0  0
    6.2550   -5.0680   27.4380 C   0  0  2  0  0  0  0  0  0  0  0  0
    6.9510   -5.2890   28.7430 C   0  0  0  0  0  0  0  0  0  0  0  0
    6.5370   -3.5820   26.9970 C   0  0  0  0  0  0  0  0  0  0  0  0
    7.1400   -2.9150   23.8280 C   0  0  0  0  0  0  0  0  0  0  0  0
    7.5920   -3.2100   22.3870 C   0  0  0  0  0  0  0  0  0  0  0  0
  1  2  1  0
  2  3  2  0
  2  4  1  0
  4  5  1  0
  5  6  1  0
  6  7  1  0
  7  8  1  0
  8  9  2  0
  8 10  1  0
 10 11  1  0
 11 12  1  0
 12 13  1  0
 13 14  1  1
 13 15  1  0
 15 16  1  0
 16 17  1  1
 10 18  1  0
 16 18  1  0
  7 19  1  0
  4 20  1  0
 19 20  1  0
M  END
