piperidine-amides-35477-covalent
     RDKit          3D

 35 38  0  0  0  0  0  0  0  0999 V2000
    7.0560   -3.3200   19.2880 C   0  0  0  0  0  0  0  0  0  0  0  0
    6.3690   -4.1520   20.3120 C   0  0  0  0  0  0  0  0  0  0  0  0
    5.3510   -4.7440   19.9520 O   0  0  0  0  0  0  0  0  0  0  0  0
    6.8920   -4.2870   21.5990 N   0  0  0  0  0  0  0  0  0  0  0  0
    7.7450   -3.2760   22.1870 C   0  0  0  0  0  0  0  0  0  0  0  0
    7.1250   -2.7090   23.4330 C   0  0  0  0  0  0  0  0  0  0  0  0
    6.6080   -3.8130   24.3610 C   0  0  0  0  0  0  0  0  0  0  0  0
    5.6040   -3.1450   25.2160 C   0  0  0  0  0  0  0  0  0  0  0  0
    4.7550   -2.4080   24.7010 O   0  0  0  0  0  0  0  0  0  0  0  0
    5.5910   -3.3420   26.5990 N   0  0  0  0  0  0  0  0  0  0  0  0
    5.8080   -4.7020   27.0820 C   0  0  0  0  0  0  0  0  0  0  0  0
    4.5040   -5.2030   27.6790 C   0  0  0  0  0  0  0  0  0  0  0  0
    3.3260   -5.0280   26.7840 N   0  0  0  0  0  0  0  0  0  0  0  0
    2.2960   -5.6030   27.6600 C   0  0  0  0  0  0  0  0  0  0  0  0
    2.9070   -5.9850   28.7900 C   0  0  0  0  0  0  0  0  0  0  0  0
    4.2180   -5.7770   28.8700 N   0  0  0  0  0  0  0  0  0  0  0  0
    5.1590   -6.0720   29.9350 C   0  0  0  0  0  0  0  0  0  0  0  0
    6.0050   -7.3190   29.8110 C   0  0  0  0  0  0  0  0  0  0  0  0
    5.2950   -2.2740   27.5130 C   0  0  2  0  0  0  0  0  0  0  0  0
    4.4790   -1.1700   27.4470 C   0  0  0  0  0  0  0  0  0  0  0  0
    5.9680   -0.8630   27.2840 C   0  0  0  0  0  0  0  0  0  0  0  0
    5.9700   -0.0350   26.0550 C   0  0  0  0  0  0  0  0  0  0  0  0
    5.9500    1.4470   26.3670 C   0  0  0  0  0  0  0  0  0  0  0  0
    6.4860    1.8810   27.5020 N   0  0  0  0  0  0  0  0  0  0  0  0
    6.7270    3.1480   27.6400 C   0  0  0  0  0  0  0  0  0  0  0  0
    7.9720    3.6910   27.2770 O   0  0  0  0  0  0  0  0  0  0  0  0
    5.8010    4.0230   28.1340 O   0  0  0  0  0  0  0  0  0  0  0  0
    5.9580    4.3670   29.4540 C   0  0  0  0  0  0  0  0  0  0  0  0
    6.2200    5.7210   29.4490 C   0  0  0  0  0  0  0  0  0  0  0  0
    4.7690    4.1480   30.3800 C   0  0  0  0  0  0  0  0  0  0  0  0
    7.0850    3.6040   30.0740 C   0  0  0  0  0  0  0  0  0  0  0  0
    6.1740    1.1200   28.5820 C   0  0  0  0  0  0  0  0  0  0  0  0
    6.4140   -0.2090   28.4100 C   0  0  0  0  0  0  0  0  0  0  0  0
    6.0320   -5.0060   23.7250 C   0  0  0  0  0  0  0  0  0  0  0  0
    6.5990   -5.4080   22.4120 C   0  0  0  0  0  0  0  0  0  0  0  0
  1  2  1  0
  2  3  2  0
  2  4  1  0
  4  5  1  0
  5  6  1  0
  6  7  1  0
  7  8  1  0
  8  9  2  0
  8 10  1  0
 10 11  1  0
 11 12  1  0
 12 13  2  0
 13 14  1  0
 14 15  2  0
 12 16  1  0
 15 16  1  0
 16 17  1  0
 17 18  1  0
 19 10  1  6
 19 20  1  0
 19 21  1  0
 21 20  1  0
 21 22  1  0
 22 23  1  0
 23 24  1  0
 24 25  1  0
 25 26  2  0
 25 27  1  0
 28 27  1  0
 28 29  1  0
 28 30  1  0
 28 31  1  0
 24 32  1  0
 21 33  1  0
 32 33  1  0
  7 34  1  0
  4 35  1  0
 34 35  1  0
M  END
