piperidine-amides-21658-covalent
     RDKit          3D

 23 25  0  0  0  0  0  0  0  0999 V2000
    6.9820   -3.2600   19.3000 C   0  0  0  0  0  0  0  0  0  0  0  0
    6.2390   -4.0200   20.3170 C   0  0  0  0  0  0  0  0  0  0  0  0
    5.2390   -4.6520   19.8980 O   0  0  0  0  0  0  0  0  0  0  0  0
    6.6030   -4.0910   21.6670 N   0  0  0  0  0  0  0  0  0  0  0  0
    6.1550   -5.2000   22.4610 C   0  0  0  0  0  0  0  0  0  0  0  0
    5.5560   -4.7140   23.7650 C   0  0  0  0  0  0  0  0  0  0  0  0
    6.3880   -3.6580   24.4930 C   0  0  0  0  0  0  0  0  0  0  0  0
    5.6300   -3.1980   25.7240 C   0  0  0  0  0  0  0  0  0  0  0  0
    4.6400   -2.4820   25.4690 O   0  0  0  0  0  0  0  0  0  0  0  0
    5.8450   -3.4640   27.1470 N   0  0  0  0  0  0  0  0  0  0  0  0
    4.7550   -3.1520   28.0290 C   0  0  0  0  0  0  0  0  0  0  0  0
    4.6530   -4.4580   28.7540 C   0  0  0  0  0  0  0  0  0  0  0  0
    5.7180   -5.2310   28.4900 C   0  0  0  0  0  0  0  0  0  0  0  0
    6.6420   -4.5420   27.7800 C   0  0  1  0  0  0  0  0  0  0  0  0
    7.3500   -5.1200   26.8510 C   0  0  0  0  0  0  0  0  0  0  0  0
    8.4440   -5.9120   26.9270 C   0  0  0  0  0  0  0  0  0  0  0  0
    8.8070   -6.1200   25.6380 C   0  0  0  0  0  0  0  0  0  0  0  0
    7.8430   -5.4650   24.9340 N   0  0  0  0  0  0  0  0  0  0  0  0
    7.6910   -5.3540   23.6200 C   0  0  0  0  0  0  0  0  0  0  0  0
    7.4800   -6.6230   22.8000 C   0  0  0  0  0  0  0  0  0  0  0  0
    6.9360   -4.8430   25.5820 N   0  0  0  0  0  0  0  0  0  0  0  0
    6.6650   -2.4980   23.5020 C   0  0  0  0  0  0  0  0  0  0  0  0
    7.4550   -3.0800   22.3160 C   0  0  0  0  0  0  0  0  0  0  0  0
  1  2  1  0
  2  3  2  0
  2  4  1  0
  4  5  1  0
  5  6  1  0
  6  7  1  0
  7  8  1  0
  8  9  2  0
  8 10  1  0
 10 11  1  0
 11 12  1  0
 12 13  1  0
 10 14  1  0
 13 14  1  0
 14 15  1  6
 15 16  1  0
 16 17  2  0
 17 18  1  0
 18 19  1  0
 19 20  1  0
 15 21  2  0
 18 21  1  0
  7 22  1  0
  4 23  1  0
 22 23  1  0
M  END
