piperidine-amides-8087-covalent
     RDKit          3D

 26 27  0  0  0  0  0  0  0  0999 V2000
    7.1130   -3.2640   19.2070 C   0  0  0  0  0  0  0  0  0  0  0  0
    6.3650   -4.0210   20.2120 C   0  0  0  0  0  0  0  0  0  0  0  0
    5.2830   -4.5350   19.8770 O   0  0  0  0  0  0  0  0  0  0  0  0
    6.8920   -4.2040   21.5090 N   0  0  0  0  0  0  0  0  0  0  0  0
    7.7250   -3.1760   22.0740 C   0  0  0  0  0  0  0  0  0  0  0  0
    7.4580   -3.0760   23.5350 C   0  0  0  0  0  0  0  0  0  0  0  0
    6.0450   -3.5670   23.7120 C   0  0  0  0  0  0  0  0  0  0  0  0
    5.5030   -3.1320   25.0180 C   0  0  0  0  0  0  0  0  0  0  0  0
    4.4670   -2.4770   25.0200 O   0  0  0  0  0  0  0  0  0  0  0  0
    6.2110   -3.5180   26.1250 N   0  0  0  0  0  0  0  0  0  0  0  0
    5.6970   -4.4810   27.0170 C   0  0  0  0  0  0  0  0  0  0  0  0
    5.7270   -4.0400   28.3260 C   0  0  2  0  0  0  0  0  0  0  0  0
    6.6110   -3.0420   28.6360 C   0  0  0  0  0  0  0  0  0  0  0  0
    6.3880   -2.0230   29.5470 C   0  0  0  0  0  0  0  0  0  0  0  0
    4.9950   -1.9030   30.0340 C   0  0  0  0  0  0  0  0  0  0  0  0
    4.6130   -0.8080   31.0570 C   0  0  0  0  0  0  0  0  0  0  0  0
    5.7040    0.1120   31.5260 C   0  0  0  0  0  0  0  0  0  0  0  0
    7.0630   -0.1650   30.9160 C   0  0  0  0  0  0  0  0  0  0  0  0
    8.2530    0.7300   31.3420 C   0  0  0  0  0  0  0  0  0  0  0  0
    7.3600   -1.1490   30.0060 C   0  0  0  0  0  0  0  0  0  0  0  0
    6.1310   -5.1770   29.2530 C   0  0  0  0  0  0  0  0  0  0  0  0
    7.3060   -5.5790   29.2060 O   0  0  0  0  0  0  0  0  0  0  0  0
    5.3140   -5.8250   30.1320 O   0  0  0  0  0  0  0  0  0  0  0  0
    5.4960   -7.2160   30.3360 C   0  0  0  0  0  0  0  0  0  0  0  0
    6.0520   -5.0920   23.5830 C   0  0  0  0  0  0  0  0  0  0  0  0
    6.6520   -5.4180   22.2340 C   0  0  0  0  0  0  0  0  0  0  0  0
  1  2  1  0
  2  3  2  0
  2  4  1  0
  4  5  1  0
  5  6  1  0
  6  7  1  0
  7  8  1  0
  8  9  2  0
  8 10  1  0
 10 11  1  0
 12 11  1  6
 12 13  1  0
 13 14  1  0
 14 15  2  0
 15 16  1  0
 16 17  2  0
 17 18  1  0
 18 19  1  0
 14 20  1  0
 18 20  2  0
 12 21  1  0
 21 22  2  0
 21 23  1  0
 23 24  1  0
  7 25  1  0
  4 26  1  0
 25 26  1  0
M  END
