piperidine-amides-8054-covalent
     RDKit          3D

 26 28  0  0  0  0  0  0  0  0999 V2000
    7.1290   -3.2950   19.2210 C   0  0  0  0  0  0  0  0  0  0  0  0
    6.4360   -4.0960   20.2260 C   0  0  0  0  0  0  0  0  0  0  0  0
    5.3510   -4.6190   19.9190 O   0  0  0  0  0  0  0  0  0  0  0  0
    7.0400   -4.3100   21.4910 N   0  0  0  0  0  0  0  0  0  0  0  0
    7.7490   -3.2230   22.0900 C   0  0  0  0  0  0  0  0  0  0  0  0
    6.8720   -2.6280   23.1400 C   0  0  0  0  0  0  0  0  0  0  0  0
    6.6000   -3.7180   24.1440 C   0  0  0  0  0  0  0  0  0  0  0  0
    5.7880   -3.1320   25.2450 C   0  0  0  0  0  0  0  0  0  0  0  0
    4.5930   -2.9520   25.0110 O   0  0  0  0  0  0  0  0  0  0  0  0
    6.4180   -2.8420   26.4390 N   0  0  0  0  0  0  0  0  0  0  0  0
    6.0870   -3.6110   27.5700 C   0  0  0  0  0  0  0  0  0  0  0  0
    6.6500   -3.2200   28.7800 C   0  0  0  0  0  0  0  0  0  0  0  0
    6.7800   -1.8920   29.1830 C   0  0  0  0  0  0  0  0  0  0  0  0
    5.9240   -0.8720   28.7340 N   0  0  0  0  0  0  0  0  0  0  0  0
    6.2860    0.2540   29.2920 N   0  0  0  0  0  0  0  0  0  0  0  0
    7.3380    0.1060   30.1020 C   0  0  0  0  0  0  0  0  0  0  0  0
    8.0890    1.1060   30.9370 C   0  0  0  0  0  0  0  0  0  0  0  0
    9.5210    0.7330   31.3880 C   0  0  0  0  0  0  0  0  0  0  0  0
   10.3470    1.6390   32.2080 C   0  0  0  0  0  0  0  0  0  0  0  0
    9.8090    2.9690   32.6300 C   0  0  0  0  0  0  0  0  0  0  0  0
   10.7040    4.1260   33.6030 Cl  0  0  0  0  0  0  0  0  0  0  0  0
    8.3650    3.2390   32.1230 C   0  0  0  0  0  0  0  0  0  0  0  0
    7.5270    2.4490   31.3570 C   0  0  0  0  0  0  0  0  0  0  0  0
    7.6270   -1.2210   30.0180 N   0  0  0  0  0  0  0  0  0  0  0  0
    5.7920   -4.8020   23.4870 C   0  0  0  0  0  0  0  0  0  0  0  0
    6.4850   -5.3740   22.2790 C   0  0  0  0  0  0  0  0  0  0  0  0
  1  2  1  0
  2  3  2  0
  2  4  1  0
  4  5  1  0
  5  6  1  0
  6  7  1  0
  7  8  1  0
  8  9  2  0
  8 10  1  0
 10 11  1  0
 11 12  1  0
 12 13  1  0
 13 14  2  0
 14 15  1  0
 15 16  2  0
 16 17  1  0
 17 18  2  0
 18 19  1  0
 19 20  2  0
 20 21  1  0
 20 22  1  0
 17 23  1  0
 22 23  2  0
 13 24  1  0
 16 24  1  0
  7 25  1  0
  4 26  1  0
 25 26  1  0
M  END
