piperidine-amides-25334-covalent
     RDKit          3D

 25 27  0  0  0  0  0  0  0  0999 V2000
    7.0340   -3.3530   19.3470 C   0  0  0  0  0  0  0  0  0  0  0  0
    6.3900   -4.2210   20.3660 C   0  0  0  0  0  0  0  0  0  0  0  0
    5.4090   -4.8690   19.9930 O   0  0  0  0  0  0  0  0  0  0  0  0
    6.9160   -4.3130   21.6650 N   0  0  0  0  0  0  0  0  0  0  0  0
    6.7570   -5.5160   22.4600 C   0  0  0  0  0  0  0  0  0  0  0  0
    6.1380   -5.1620   23.7850 C   0  0  0  0  0  0  0  0  0  0  0  0
    6.1860   -3.6440   23.8870 C   0  0  0  0  0  0  0  0  0  0  0  0
    5.7920   -3.1190   25.2070 C   0  0  0  0  0  0  0  0  0  0  0  0
    5.3800   -1.9610   25.2720 O   0  0  0  0  0  0  0  0  0  0  0  0
    5.8050   -3.8580   26.3870 N   0  0  0  0  0  0  0  0  0  0  0  0
    6.4200   -3.2110   27.5130 C   0  0  0  0  0  0  0  0  0  0  0  0
    6.5610   -4.2250   28.6450 C   0  0  0  0  0  0  0  0  0  0  0  0
    5.5030   -4.8260   29.2460 C   0  0  0  0  0  0  0  0  0  0  0  0
    5.2100   -5.6890   30.2300 C   0  0  0  0  0  0  0  0  0  0  0  0
    4.2490   -5.6720   31.1970 C   0  0  0  0  0  0  0  0  0  0  0  0
    3.9420   -6.6590   32.3250 C   0  0  0  0  0  0  0  0  0  0  0  0
    4.9540   -7.7850   32.2220 C   0  0  0  0  0  0  0  0  0  0  0  0
    4.9890   -8.8500   33.0770 O   0  0  0  0  0  0  0  0  0  0  0  0
    5.8630   -8.7370   34.1530 C   0  0  0  0  0  0  0  0  0  0  0  0
    6.0210   -7.8120   31.1400 C   0  0  0  0  0  0  0  0  0  0  0  0
    6.2000   -6.7910   30.1060 C   0  0  0  0  0  0  0  0  0  0  0  0
    4.4450   -4.2240   28.4440 C   0  0  0  0  0  0  0  0  0  0  0  0
    4.6830   -4.4460   27.0120 C   0  0  0  0  0  0  0  0  0  0  0  0
    7.5670   -3.1530   23.5450 C   0  0  0  0  0  0  0  0  0  0  0  0
    7.7530   -3.2160   22.1890 C   0  0  0  0  0  0  0  0  0  0  0  0
  1  2  1  0
  2  3  2  0
  2  4  1  0
  4  5  1  0
  5  6  1  0
  6  7  1  0
  7  8  1  0
  8  9  2  0
  8 10  1  0
 10 11  1  0
 11 12  1  0
 12 13  2  0
 13 14  1  0
 14 15  2  0
 15 16  1  0
 16 17  2  0
 17 18  1  0
 18 19  1  0
 17 20  1  0
 14 21  1  0
 20 21  2  0
 13 22  1  0
 10 23  1  0
 22 23  1  0
  7 24  1  0
  4 25  1  0
 24 25  1  0
M  END
