piperidine-amides-34324-covalent
     RDKit          3D

 29 32  0  0  0  0  0  0  0  0999 V2000
    7.0950   -3.3790   19.4330 C   0  0  0  0  0  0  0  0  0  0  0  0
    6.3930   -4.2570   20.3740 C   0  0  0  0  0  0  0  0  0  0  0  0
    5.3750   -4.8850   19.9950 O   0  0  0  0  0  0  0  0  0  0  0  0
    6.8730   -4.4450   21.6800 N   0  0  0  0  0  0  0  0  0  0  0  0
    6.3770   -5.5360   22.4750 C   0  0  0  0  0  0  0  0  0  0  0  0
    5.4840   -4.8960   23.5490 C   0  0  0  0  0  0  0  0  0  0  0  0
    6.3840   -4.0040   24.3880 C   0  0  0  0  0  0  0  0  0  0  0  0
    5.6570   -3.2550   25.4690 C   0  0  0  0  0  0  0  0  0  0  0  0
    5.2040   -2.1490   25.1170 O   0  0  0  0  0  0  0  0  0  0  0  0
    5.4120   -3.6780   26.8380 N   0  0  0  0  0  0  0  0  0  0  0  0
    6.3900   -4.2030   27.7400 C   0  0  0  0  0  0  0  0  0  0  0  0
    7.0770   -5.0290   28.8200 C   0  0  0  0  0  0  0  0  0  0  0  0
    6.4280   -5.9540   29.4330 C   0  0  0  0  0  0  0  0  0  0  0  0
    5.2000   -6.0070   28.9870 N   0  0  0  0  0  0  0  0  0  0  0  0
    5.2300   -5.0310   28.0750 N   0  0  0  0  0  0  0  0  0  0  0  0
    3.9730   -5.0180   27.6000 C   0  0  1  0  0  0  0  0  0  0  0  0
    3.0550   -6.0410   27.9290 C   0  0  0  0  0  0  0  0  0  0  0  0
    3.0470   -6.3730   29.2720 F   0  0  0  0  0  0  0  0  0  0  0  0
    1.7730   -5.6560   27.6160 F   0  0  0  0  0  0  0  0  0  0  0  0
    3.3180   -7.2080   27.2390 F   0  0  0  0  0  0  0  0  0  0  0  0
    3.6600   -3.8020   28.1280 C   0  0  0  0  0  0  0  0  0  0  0  0
    4.5890   -2.7560   27.6210 C   0  0  2  0  0  0  0  0  0  0  0  0
    3.1000   -2.5750   27.3390 C   0  0  0  0  0  0  0  0  0  0  0  0
    2.2250   -3.5660   26.6280 C   0  0  0  0  0  0  0  0  0  0  0  0
    1.0820   -2.6040   26.8170 C   0  0  0  0  0  0  0  0  0  0  0  0
    1.1350   -1.3380   27.4580 C   0  0  0  0  0  0  0  0  0  0  0  0
    2.7100   -1.0740   27.9870 S   0  0  0  0  0  0  0  0  0  0  0  0
    6.9240   -2.8910   23.4760 C   0  0  0  0  0  0  0  0  0  0  0  0
    7.7180   -3.4690   22.3390 C   0  0  0  0  0  0  0  0  0  0  0  0
  1  2  1  0
  2  3  2  0
  2  4  1  0
  4  5  1  0
  5  6  1  0
  6  7  1  0
  7  8  1  0
  8  9  2  0
  8 10  1  0
 10 11  1  0
 11 12  2  0
 12 13  1  0
 13 14  2  0
 11 15  1  0
 14 15  1  0
 15 16  1  0
 16 17  1  1
 17 18  1  0
 17 19  1  0
 17 20  1  0
 16 21  1  0
 10 22  1  0
 21 22  1  0
 22 23  1  6
 23 24  2  0
 24 25  1  0
 25 26  2  0
 23 27  1  0
 26 27  1  0
  7 28  1  0
  4 29  1  0
 28 29  1  0
M  END
