piperidine-amides-11680-covalent
     RDKit          3D

 29 31  0  0  0  0  0  0  0  0999 V2000
    7.0590   -3.2880   19.2360 C   0  0  0  0  0  0  0  0  0  0  0  0
    6.3030   -4.0390   20.2370 C   0  0  0  0  0  0  0  0  0  0  0  0
    5.2710   -4.6170   19.9080 O   0  0  0  0  0  0  0  0  0  0  0  0
    6.7700   -4.1560   21.5930 N   0  0  0  0  0  0  0  0  0  0  0  0
    7.6710   -3.1660   22.1440 C   0  0  0  0  0  0  0  0  0  0  0  0
    7.3870   -2.9460   23.6030 C   0  0  0  0  0  0  0  0  0  0  0  0
    6.0410   -3.5790   23.8970 C   0  0  0  0  0  0  0  0  0  0  0  0
    5.5990   -3.3120   25.2940 C   0  0  0  0  0  0  0  0  0  0  0  0
    4.4100   -3.4380   25.6370 O   0  0  0  0  0  0  0  0  0  0  0  0
    6.5390   -2.8940   26.2610 N   0  0  0  0  0  0  0  0  0  0  0  0
    6.6650   -1.4870   26.5460 C   0  0  0  0  0  0  0  0  0  0  0  0
    5.3160   -0.9830   26.9970 C   0  0  0  0  0  0  0  0  0  0  0  0
    4.6000   -1.6500   27.9780 C   0  0  0  0  0  0  0  0  0  0  0  0
    3.3570   -1.1700   28.3810 C   0  0  0  0  0  0  0  0  0  0  0  0
    2.8600   -0.0400   27.7990 C   0  0  0  0  0  0  0  0  0  0  0  0
    3.5610    0.7040   26.7670 C   0  0  0  0  0  0  0  0  0  0  0  0
    3.1350    1.8490   26.1290 C   0  0  0  0  0  0  0  0  0  0  0  0
    1.8400    2.1410   25.9030 N   0  0  0  0  0  0  0  0  0  0  0  0
    1.9260    3.3080   25.2830 N   0  0  0  0  0  0  0  0  0  0  0  0
    3.2520    3.8680   25.0520 C   0  0  0  0  0  0  0  0  0  0  0  0
    3.6340    5.0590   24.4330 C   0  0  0  0  0  0  0  0  0  0  0  0
    4.9540    5.4060   24.5040 O   0  0  0  0  0  0  0  0  0  0  0  0
    2.6670    5.8110   23.7880 O   0  0  0  0  0  0  0  0  0  0  0  0
    2.9300    6.8350   22.8790 C   0  0  0  0  0  0  0  0  0  0  0  0
    3.9510    7.6840   23.2750 C   0  0  0  0  0  0  0  0  0  0  0  0
    4.0720    2.8350   25.6520 N   0  0  0  0  0  0  0  0  0  0  0  0
    4.7820    0.1670   26.4240 C   0  0  0  0  0  0  0  0  0  0  0  0
    6.0880   -5.0780   23.6920 C   0  0  0  0  0  0  0  0  0  0  0  0
    6.6280   -5.4060   22.2930 C   0  0  0  0  0  0  0  0  0  0  0  0
  1  2  1  0
  2  3  2  0
  2  4  1  0
  4  5  1  0
  5  6  1  0
  6  7  1  0
  7  8  1  0
  8  9  2  0
  8 10  1  0
 10 11  1  0
 11 12  1  0
 12 13  2  0
 13 14  1  0
 14 15  2  0
 15 16  1  0
 16 17  1  0
 17 18  2  0
 18 19  1  0
 19 20  2  0
 20 21  1  0
 21 22  2  0
 21 23  1  0
 23 24  1  0
 24 25  1  0
 17 26  1  0
 20 26  1  0
 12 27  1  0
 16 27  2  0
  7 28  1  0
  4 29  1  0
 28 29  1  0
M  END
