piperidine-amides-30179-covalent
     RDKit          3D

 27 29  0  0  0  0  0  0  0  0999 V2000
    7.1040   -3.3730   19.4010 C   0  0  0  0  0  0  0  0  0  0  0  0
    6.3840   -4.2060   20.3500 C   0  0  0  0  0  0  0  0  0  0  0  0
    5.3910   -4.8390   19.9880 O   0  0  0  0  0  0  0  0  0  0  0  0
    6.8760   -4.3250   21.6930 N   0  0  0  0  0  0  0  0  0  0  0  0
    7.7350   -3.2860   22.2320 C   0  0  0  0  0  0  0  0  0  0  0  0
    7.5010   -3.1250   23.7020 C   0  0  0  0  0  0  0  0  0  0  0  0
    6.1470   -3.7430   23.9740 C   0  0  0  0  0  0  0  0  0  0  0  0
    5.5590   -3.3280   25.2790 C   0  0  0  0  0  0  0  0  0  0  0  0
    4.5980   -2.5430   25.3190 O   0  0  0  0  0  0  0  0  0  0  0  0
    6.0460   -3.8210   26.5100 N   0  0  0  0  0  0  0  0  0  0  0  0
    6.4360   -2.8070   27.4390 C   0  0  0  0  0  0  0  0  0  0  0  0
    6.7440   -3.4950   28.7410 C   0  0  0  0  0  0  0  0  0  0  0  0
    5.8660   -4.4230   29.1620 C   0  0  0  0  0  0  0  0  0  0  0  0
    5.0840   -4.0050   30.0480 O   0  0  0  0  0  0  0  0  0  0  0  0
    3.7040   -3.9120   29.8460 C   0  0  0  0  0  0  0  0  0  0  0  0
    3.1140   -2.8070   29.2370 C   0  0  0  0  0  0  0  0  0  0  0  0
    1.6800   -2.7880   29.0700 C   0  0  0  0  0  0  0  0  0  0  0  0
    0.8610   -3.7870   29.4740 C   0  0  0  0  0  0  0  0  0  0  0  0
   -0.4670   -3.6890   29.2800 N   0  0  0  0  0  0  0  0  0  0  0  0
   -0.9120   -2.8840   28.2670 O   0  0  0  0  0  0  0  0  0  0  0  0
   -1.3520   -4.2590   30.1560 O   0  0  0  0  0  0  0  0  0  0  0  0
    1.4370   -4.8770   30.0730 C   0  0  0  0  0  0  0  0  0  0  0  0
    2.8300   -4.9300   30.2510 C   0  0  0  0  0  0  0  0  0  0  0  0
    5.0310   -4.9630   28.2660 C   0  0  0  0  0  0  0  0  0  0  0  0
    5.4910   -5.0420   26.9670 C   0  0  0  0  0  0  0  0  0  0  0  0
    6.2180   -5.2310   23.8110 C   0  0  0  0  0  0  0  0  0  0  0  0
    6.6120   -5.5380   22.4030 C   0  0  0  0  0  0  0  0  0  0  0  0
  1  2  1  0
  2  3  2  0
  2  4  1  0
  4  5  1  0
  5  6  1  0
  6  7  1  0
  7  8  1  0
  8  9  2  0
  8 10  1  0
 10 11  1  0
 11 12  1  0
 12 13  1  0
 13 14  1  0
 14 15  1  0
 15 16  2  0
 16 17  1  0
 17 18  2  0
 18 19  1  0
 19 20  2  0
 19 21  1  0
 18 22  1  0
 15 23  1  0
 22 23  2  0
 13 24  1  0
 10 25  1  0
 24 25  1  0
  7 26  1  0
  4 27  1  0
 26 27  1  0
M  CHG  2  19   1  21  -1
M  END
