piperidine-amides-13206-covalent
     RDKit          3D

 19 19  0  0  0  0  0  0  0  0999 V2000
    7.1240   -3.3050   19.2010 C   0  0  0  0  0  0  0  0  0  0  0  0
    6.3440   -4.0210   20.2320 C   0  0  0  0  0  0  0  0  0  0  0  0
    5.2590   -4.5040   19.8700 O   0  0  0  0  0  0  0  0  0  0  0  0
    6.8540   -4.1900   21.5260 N   0  0  0  0  0  0  0  0  0  0  0  0
    7.6250   -3.1510   22.1170 C   0  0  0  0  0  0  0  0  0  0  0  0
    7.1970   -2.8660   23.4760 C   0  0  0  0  0  0  0  0  0  0  0  0
    5.9660   -3.5920   23.8620 C   0  0  0  0  0  0  0  0  0  0  0  0
    5.6870   -3.3720   25.2960 C   0  0  0  0  0  0  0  0  0  0  0  0
    4.5250   -3.0670   25.6280 O   0  0  0  0  0  0  0  0  0  0  0  0
    6.6960   -3.5020   26.2660 N   0  0  0  0  0  0  0  0  0  0  0  0
    6.5740   -4.3940   27.4400 C   0  0  1  0  0  0  0  0  0  0  0  0
    6.0140   -5.7120   27.0650 C   0  0  0  0  0  0  0  0  0  0  0  0
    5.5630   -6.6240   28.1140 C   0  0  0  0  0  0  0  0  0  0  0  0
    7.9210   -4.5640   27.8490 C   0  0  0  0  0  0  0  0  0  0  0  0
    8.0150   -5.6530   28.6290 F   0  0  0  0  0  0  0  0  0  0  0  0
    8.6630   -4.7270   26.7170 F   0  0  0  0  0  0  0  0  0  0  0  0
    8.3640   -3.4440   28.4920 F   0  0  0  0  0  0  0  0  0  0  0  0
    5.9730   -5.0560   23.5160 C   0  0  0  0  0  0  0  0  0  0  0  0
    6.4550   -5.3450   22.2670 C   0  0  0  0  0  0  0  0  0  0  0  0
  1  2  1  0
  2  3  2  0
  2  4  1  0
  4  5  1  0
  5  6  1  0
  6  7  1  0
  7  8  1  0
  8  9  2  0
  8 10  1  0
 10 11  1  0
 11 12  1  6
 12 13  1  0
 11 14  1  0
 14 15  1  0
 14 16  1  0
 14 17  1  0
  7 18  1  0
  4 19  1  0
 18 19  1  0
M  END
