piperidine-amides-33054-covalent
     RDKit          3D

 29 31  0  0  0  0  0  0  0  0999 V2000
    7.1550   -3.2790   19.1640 C   0  0  0  0  0  0  0  0  0  0  0  0
    6.3980   -4.0300   20.1790 C   0  0  0  0  0  0  0  0  0  0  0  0
    5.2680   -4.4580   19.8470 O   0  0  0  0  0  0  0  0  0  0  0  0
    6.9500   -4.3230   21.4460 N   0  0  0  0  0  0  0  0  0  0  0  0
    6.3220   -5.3630   22.1680 C   0  0  0  0  0  0  0  0  0  0  0  0
    5.6500   -4.8990   23.3760 C   0  0  0  0  0  0  0  0  0  0  0  0
    6.3860   -3.8840   24.1700 C   0  0  0  0  0  0  0  0  0  0  0  0
    5.5630   -3.4080   25.3190 C   0  0  0  0  0  0  0  0  0  0  0  0
    4.3200   -3.4550   25.2540 O   0  0  0  0  0  0  0  0  0  0  0  0
    6.1670   -2.8900   26.4720 N   0  0  0  0  0  0  0  0  0  0  0  0
    6.5500   -1.5390   26.6210 C   0  0  0  0  0  0  0  0  0  0  0  0
    5.8050   -0.4990   25.9040 C   0  0  0  0  0  0  0  0  0  0  0  0
    5.9700    0.9560   26.4200 C   0  0  0  0  0  0  0  0  0  0  0  0
    5.3480    2.0880   25.8740 C   0  0  0  0  0  0  0  0  0  0  0  0
    4.4270    1.8340   24.6560 C   0  0  0  0  0  0  0  0  0  0  0  0
    3.7690    2.8990   24.0540 O   0  0  0  0  0  0  0  0  0  0  0  0
    2.8370    2.4020   23.1400 C   0  0  0  0  0  0  0  0  0  0  0  0
    4.2620    0.3960   24.1450 C   0  0  0  0  0  0  0  0  0  0  0  0
    4.9260   -0.7930   24.7310 C   0  0  0  0  0  0  0  0  0  0  0  0
    6.1900   -3.6770   27.6530 C   0  0  0  0  0  0  0  0  0  0  0  0
    6.6540   -5.1280   27.5270 C   0  0  2  0  0  0  0  0  0  0  0  0
    7.8240   -5.2700   28.3890 C   0  0  0  0  0  0  0  0  0  0  0  0
    8.8930   -4.8110   27.7440 O   0  0  0  0  0  0  0  0  0  0  0  0
    8.5230   -5.0070   26.4050 C   0  0  0  0  0  0  0  0  0  0  0  0
    9.3570   -5.9750   25.9750 C   0  0  0  0  0  0  0  0  0  0  0  0
    8.7690   -3.9460   25.5510 C   0  0  0  0  0  0  0  0  0  0  0  0
    7.1870   -5.4240   26.2670 O   0  0  0  0  0  0  0  0  0  0  0  0
    6.8810   -2.7470   23.3240 C   0  0  0  0  0  0  0  0  0  0  0  0
    7.6360   -3.2740   22.1270 C   0  0  0  0  0  0  0  0  0  0  0  0
  1  2  1  0
  2  3  2  0
  2  4  1  0
  4  5  1  0
  5  6  1  0
  6  7  1  0
  7  8  1  0
  8  9  2  0
  8 10  1  0
 10 11  1  0
 11 12  1  0
 12 13  2  0
 13 14  1  0
 14 15  2  0
 15 16  1  0
 16 17  1  0
 15 18  1  0
 12 19  1  0
 18 19  2  0
 10 20  1  0
 21 20  1  6
 21 22  1  0
 22 23  1  0
 23 24  1  0
 24 25  1  0
 24 26  1  0
 21 27  1  0
 24 27  1  0
  7 28  1  0
  4 29  1  0
 28 29  1  0
M  END
