piperidine-amides-10814-covalent
     RDKit          3D

 22 23  0  0  0  0  0  0  0  0999 V2000
    7.0890   -3.2700   19.2240 C   0  0  0  0  0  0  0  0  0  0  0  0
    6.3410   -4.0190   20.2430 C   0  0  0  0  0  0  0  0  0  0  0  0
    5.2980   -4.6010   19.9050 O   0  0  0  0  0  0  0  0  0  0  0  0
    6.7920   -4.1380   21.5730 N   0  0  0  0  0  0  0  0  0  0  0  0
    6.6950   -5.3940   22.2840 C   0  0  0  0  0  0  0  0  0  0  0  0
    6.0720   -5.0750   23.6180 C   0  0  0  0  0  0  0  0  0  0  0  0
    6.0690   -3.6050   23.9020 C   0  0  0  0  0  0  0  0  0  0  0  0
    5.6400   -3.2450   25.2820 C   0  0  0  0  0  0  0  0  0  0  0  0
    4.4190   -3.0150   25.5220 O   0  0  0  0  0  0  0  0  0  0  0  0
    6.5320   -3.1290   26.3700 N   0  0  0  0  0  0  0  0  0  0  0  0
    6.1990   -3.6590   27.7230 C   0  0  0  0  0  0  0  0  0  0  0  0
    5.2650   -4.8060   27.6070 C   0  0  0  0  0  0  0  0  0  0  0  0
    5.1370   -5.6460   26.4170 C   0  0  0  0  0  0  0  0  0  0  0  0
    4.1500   -6.7760   26.4260 C   0  0  0  0  0  0  0  0  0  0  0  0
    4.0470   -7.5530   25.2760 F   0  0  0  0  0  0  0  0  0  0  0  0
    3.2800   -7.0910   27.6230 C   0  0  0  0  0  0  0  0  0  0  0  0
    3.4360   -6.2130   28.8190 C   0  0  0  0  0  0  0  0  0  0  0  0
    2.7140   -6.3740   29.9710 O   0  0  0  0  0  0  0  0  0  0  0  0
    2.4370   -5.1980   30.6570 C   0  0  0  0  0  0  0  0  0  0  0  0
    4.4320   -5.0600   28.8240 C   0  0  0  0  0  0  0  0  0  0  0  0
    7.4230   -2.9630   23.6020 C   0  0  0  0  0  0  0  0  0  0  0  0
    7.6510   -3.0820   22.0930 C   0  0  0  0  0  0  0  0  0  0  0  0
  1  2  1  0
  2  3  2  0
  2  4  1  0
  4  5  1  0
  5  6  1  0
  6  7  1  0
  7  8  1  0
  8  9  2  0
  8 10  1  0
 10 11  1  0
 11 12  1  0
 12 13  2  0
 13 14  1  0
 14 15  1  0
 14 16  2  0
 16 17  1  0
 17 18  1  0
 18 19  1  0
 12 20  1  0
 17 20  2  0
  7 21  1  0
  4 22  1  0
 21 22  1  0
M  END
