piperidine-amides-23763-covalent
     RDKit          3D

 24 26  0  0  0  0  0  0  0  0999 V2000
    7.1160   -3.3630   19.3550 C   0  0  0  0  0  0  0  0  0  0  0  0
    6.4640   -4.2400   20.3360 C   0  0  0  0  0  0  0  0  0  0  0  0
    5.3870   -4.7780   19.9740 O   0  0  0  0  0  0  0  0  0  0  0  0
    7.0620   -4.5210   21.5910 N   0  0  0  0  0  0  0  0  0  0  0  0
    6.5160   -5.5540   22.3800 C   0  0  0  0  0  0  0  0  0  0  0  0
    5.9720   -5.1020   23.6610 C   0  0  0  0  0  0  0  0  0  0  0  0
    6.5120   -3.8330   24.2220 C   0  0  0  0  0  0  0  0  0  0  0  0
    5.5720   -3.2520   25.2380 C   0  0  0  0  0  0  0  0  0  0  0  0
    4.7430   -2.4080   24.8680 O   0  0  0  0  0  0  0  0  0  0  0  0
    5.5680   -3.6230   26.5880 N   0  0  0  0  0  0  0  0  0  0  0  0
    4.5030   -4.1980   27.2700 C   0  0  0  0  0  0  0  0  0  0  0  0
    4.7880   -5.0520   28.4110 C   0  0  0  0  0  0  0  0  0  0  0  0
    5.6410   -4.2880   29.4250 C   0  0  0  0  0  0  0  0  0  0  0  0
    5.2070   -3.0270   29.8060 C   0  0  0  0  0  0  0  0  0  0  0  0
    3.7640   -3.0980   30.2890 C   0  0  0  0  0  0  0  0  0  0  0  0
    3.0570   -1.9400   30.7490 N   0  0  0  0  0  0  0  0  0  0  0  0
    3.7880   -0.6490   30.7420 C   0  0  0  0  0  0  0  0  0  0  0  0
    3.1020    0.4830   31.1940 O   0  0  0  0  0  0  0  0  0  0  0  0
    5.0610   -0.4490   30.3430 N   0  0  0  0  0  0  0  0  0  0  0  0
    5.7400   -1.6520   29.8840 C   0  0  0  0  0  0  0  0  0  0  0  0
    6.7440   -4.2600   28.4540 C   0  0  0  0  0  0  0  0  0  0  0  0
    6.4610   -3.0970   27.5010 C   0  0  0  0  0  0  0  0  0  0  0  0
    6.7910   -2.7660   23.1590 C   0  0  0  0  0  0  0  0  0  0  0  0
    7.7620   -3.4030   22.2440 C   0  0  0  0  0  0  0  0  0  0  0  0
  1  2  1  0
  2  3  2  0
  2  4  1  0
  4  5  1  0
  5  6  1  0
  6  7  1  0
  7  8  1  0
  8  9  2  0
  8 10  1  0
 10 11  1  0
 11 12  1  0
 12 13  1  0
 13 14  1  0
 14 15  2  0
 15 16  1  0
 16 17  2  0
 17 18  1  0
 17 19  1  0
 14 20  1  0
 19 20  2  0
 13 21  1  0
 10 22  1  0
 21 22  1  0
  7 23  1  0
  4 24  1  0
 23 24  1  0
M  END
