piperidine-amides-9287-covalent
     RDKit          3D

 20 20  0  0  0  0  0  0  0  0999 V2000
    7.1110   -3.2590   19.1790 C   0  0  0  0  0  0  0  0  0  0  0  0
    6.3260   -3.9770   20.1850 C   0  0  0  0  0  0  0  0  0  0  0  0
    5.2570   -4.5170   19.8630 O   0  0  0  0  0  0  0  0  0  0  0  0
    6.7850   -4.1110   21.4990 N   0  0  0  0  0  0  0  0  0  0  0  0
    7.7260   -3.1900   22.0980 C   0  0  0  0  0  0  0  0  0  0  0  0
    7.0860   -2.7140   23.3680 C   0  0  0  0  0  0  0  0  0  0  0  0
    6.6740   -3.8560   24.2420 C   0  0  0  0  0  0  0  0  0  0  0  0
    6.0280   -3.3610   25.4730 C   0  0  0  0  0  0  0  0  0  0  0  0
    4.7690   -3.1820   25.5280 O   0  0  0  0  0  0  0  0  0  0  0  0
    6.8010   -3.0520   26.6180 N   0  0  0  0  0  0  0  0  0  0  0  0
    6.4690   -3.5840   27.9570 C   0  0  0  0  0  0  0  0  0  0  0  0
    6.2070   -5.0430   27.8880 C   0  0  0  0  0  0  0  0  0  0  0  0
    5.6570   -5.5920   26.6370 C   0  0  0  0  0  0  0  0  0  0  0  0
    5.2140   -5.4700   28.9330 C   0  0  0  0  0  0  0  0  0  0  0  0
    7.3890   -5.8740   28.0990 C   0  0  0  0  0  0  0  0  0  0  0  0
    8.6640   -5.1870   28.0000 C   0  0  0  0  0  0  0  0  0  0  0  0
    8.9850   -4.8350   26.7370 O   0  0  0  0  0  0  0  0  0  0  0  0
    9.4220   -5.8970   26.0000 C   0  0  0  0  0  0  0  0  0  0  0  0
    5.7580   -4.8160   23.5100 C   0  0  0  0  0  0  0  0  0  0  0  0
    6.4500   -5.2940   22.2560 C   0  0  0  0  0  0  0  0  0  0  0  0
  1  2  1  0
  2  3  2  0
  2  4  1  0
  4  5  1  0
  5  6  1  0
  6  7  1  0
  7  8  1  0
  8  9  2  0
  8 10  1  0
 10 11  1  0
 12 11  1  0
 12 13  1  0
 12 14  1  0
 12 15  1  0
 15 16  1  0
 16 17  1  0
 17 18  1  0
  7 19  1  0
  4 20  1  0
 19 20  1  0
M  END
