piperidine-amides-21620-covalent
     RDKit          3D

 23 25  0  0  0  0  0  0  0  0999 V2000
    7.0490   -3.3480   19.3460 C   0  0  0  0  0  0  0  0  0  0  0  0
    6.4050   -4.2020   20.3540 C   0  0  0  0  0  0  0  0  0  0  0  0
    5.3830   -4.8340   19.9790 O   0  0  0  0  0  0  0  0  0  0  0  0
    6.9410   -4.3270   21.6440 N   0  0  0  0  0  0  0  0  0  0  0  0
    6.7920   -5.5540   22.4020 C   0  0  0  0  0  0  0  0  0  0  0  0
    6.1720   -5.1860   23.7170 C   0  0  0  0  0  0  0  0  0  0  0  0
    6.2400   -3.7000   23.9000 C   0  0  0  0  0  0  0  0  0  0  0  0
    5.6660   -3.2700   25.1910 C   0  0  0  0  0  0  0  0  0  0  0  0
    4.7880   -2.3860   25.1630 O   0  0  0  0  0  0  0  0  0  0  0  0
    6.0040   -3.7930   26.4400 N   0  0  0  0  0  0  0  0  0  0  0  0
    5.1720   -4.8530   26.9230 C   0  0  0  0  0  0  0  0  0  0  0  0
    5.5790   -5.3280   28.2950 C   0  0  0  0  0  0  0  0  0  0  0  0
    5.8050   -4.4810   29.3090 C   0  0  0  0  0  0  0  0  0  0  0  0
    4.7090   -3.9350   29.9010 N   0  0  0  0  0  0  0  0  0  0  0  0
    3.7470   -4.7460   30.4190 C   0  0  0  0  0  0  0  0  0  0  0  0
    2.7620   -3.9980   30.9520 C   0  0  0  0  0  0  0  0  0  0  0  0
    1.5980   -4.3890   31.5830 C   0  0  0  0  0  0  0  0  0  0  0  0
    3.1300   -2.7360   30.7540 C   0  0  0  0  0  0  0  0  0  0  0  0
    4.3180   -2.6270   30.1140 N   0  0  0  0  0  0  0  0  0  0  0  0
    6.6720   -3.5610   28.8200 C   0  0  0  0  0  0  0  0  0  0  0  0
    6.3470   -2.9130   27.4840 C   0  0  0  0  0  0  0  0  0  0  0  0
    7.6680   -3.2120   23.6790 C   0  0  0  0  0  0  0  0  0  0  0  0
    7.8140   -3.2660   22.1660 C   0  0  0  0  0  0  0  0  0  0  0  0
  1  2  1  0
  2  3  2  0
  2  4  1  0
  4  5  1  0
  5  6  1  0
  6  7  1  0
  7  8  1  0
  8  9  2  0
  8 10  1  0
 10 11  1  0
 11 12  1  0
 12 13  1  0
 13 14  1  0
 14 15  1  0
 15 16  2  0
 16 17  1  0
 16 18  1  0
 14 19  1  0
 18 19  2  0
 13 20  1  0
 10 21  1  0
 20 21  1  0
  7 22  1  0
  4 23  1  0
 22 23  1  0
M  END
