piperidine-amides-19273-covalent
     RDKit          3D

 22 23  0  0  0  0  0  0  0  0999 V2000
    7.1620   -3.2900   19.3450 C   0  0  0  0  0  0  0  0  0  0  0  0
    6.4350   -4.0720   20.3170 C   0  0  0  0  0  0  0  0  0  0  0  0
    5.3780   -4.6760   19.9400 O   0  0  0  0  0  0  0  0  0  0  0  0
    6.8830   -4.2190   21.6490 N   0  0  0  0  0  0  0  0  0  0  0  0
    7.7290   -3.1580   22.2360 C   0  0  0  0  0  0  0  0  0  0  0  0
    6.7510   -2.6150   23.3420 C   0  0  0  0  0  0  0  0  0  0  0  0
    6.4030   -3.8190   24.1910 C   0  0  0  0  0  0  0  0  0  0  0  0
    5.4770   -3.4430   25.4330 C   0  0  0  0  0  0  0  0  0  0  0  0
    4.3510   -3.8830   25.2510 O   0  0  0  0  0  0  0  0  0  0  0  0
    6.1060   -2.7630   26.3090 N   0  0  0  0  0  0  0  0  0  0  0  0
    6.6870   -1.6540   26.8450 C   0  0  0  0  0  0  0  0  0  0  0  0
    6.0820   -3.5700   27.4830 C   0  0  0  0  0  0  0  0  0  0  0  0
    5.7530   -4.9510   27.3540 C   0  0  0  0  0  0  0  0  0  0  0  0
    6.3320   -5.8400   28.3940 C   0  0  0  0  0  0  0  0  0  0  0  0
    4.9680   -6.4790   28.7040 C   0  0  0  0  0  0  0  0  0  0  0  0
    4.4900   -6.9150   27.4570 C   0  0  0  0  0  0  0  0  0  0  0  0
    3.2760   -7.5850   27.0570 C   0  0  0  0  0  0  0  0  0  0  0  0
    2.6190   -7.6920   28.4730 C   0  0  0  0  0  0  0  0  0  0  0  0
    3.1370   -7.2180   29.8630 C   0  0  0  0  0  0  0  0  0  0  0  0
    4.3190   -6.6160   29.9130 C   0  0  0  0  0  0  0  0  0  0  0  0
    5.7880   -5.0060   23.4430 C   0  0  0  0  0  0  0  0  0  0  0  0
    6.5880   -5.3910   22.4180 C   0  0  0  0  0  0  0  0  0  0  0  0
  1  2  1  0
  2  3  2  0
  2  4  1  0
  4  5  1  0
  5  6  1  0
  6  7  1  0
  7  8  1  0
  8  9  2  0
  8 10  1  0
 10 11  1  0
 10 12  1  0
 12 13  1  0
 13 14  1  0
 14 15  1  0
 15 16  2  0
 16 17  1  0
 17 18  2  0
 18 19  1  0
 15 20  1  0
 19 20  2  0
  7 21  1  0
  4 22  1  0
 21 22  1  0
M  END
