piperidine-amides-4595-covalent
     RDKit          3D

 25 26  0  0  0  0  0  0  0  0999 V2000
    7.0650   -3.2840   19.2470 C   0  0  0  0  0  0  0  0  0  0  0  0
    6.3490   -4.0790   20.2730 C   0  0  0  0  0  0  0  0  0  0  0  0
    5.2980   -4.6410   19.9120 O   0  0  0  0  0  0  0  0  0  0  0  0
    6.8660   -4.2180   21.5700 N   0  0  0  0  0  0  0  0  0  0  0  0
    7.4930   -3.1100   22.2040 C   0  0  0  0  0  0  0  0  0  0  0  0
    6.8260   -2.7260   23.4420 C   0  0  0  0  0  0  0  0  0  0  0  0
    6.5130   -3.8690   24.3260 C   0  0  0  0  0  0  0  0  0  0  0  0
    5.6830   -3.4260   25.4890 C   0  0  0  0  0  0  0  0  0  0  0  0
    4.4380   -3.5390   25.4310 O   0  0  0  0  0  0  0  0  0  0  0  0
    6.2530   -2.8810   26.6620 N   0  0  0  0  0  0  0  0  0  0  0  0
    6.6810   -1.4650   26.7910 C   0  0  0  0  0  0  0  0  0  0  0  0
    5.7350   -0.4380   26.2450 C   0  0  0  0  0  0  0  0  0  0  0  0
    5.0150   -0.7060   25.0170 C   0  0  0  0  0  0  0  0  0  0  0  0
    4.1330    0.1580   24.4250 C   0  0  0  0  0  0  0  0  0  0  0  0
    3.5370   -0.1300   23.3690 O   0  0  0  0  0  0  0  0  0  0  0  0
    4.0640    0.4230   22.3130 C   0  0  0  0  0  0  0  0  0  0  0  0
    3.9340    1.4510   25.1330 C   0  0  0  0  0  0  0  0  0  0  0  0
    3.0480    2.3860   24.5870 O   0  0  0  0  0  0  0  0  0  0  0  0
    3.6880    3.6160   24.5410 C   0  0  0  0  0  0  0  0  0  0  0  0
    4.6250    1.7130   26.3150 C   0  0  0  0  0  0  0  0  0  0  0  0
    5.5170    0.7880   26.8760 C   0  0  0  0  0  0  0  0  0  0  0  0
    6.1910    1.0860   28.0560 O   0  0  0  0  0  0  0  0  0  0  0  0
    6.6880    2.4020   28.1800 C   0  0  0  0  0  0  0  0  0  0  0  0
    5.8120   -4.9780   23.5980 C   0  0  0  0  0  0  0  0  0  0  0  0
    6.6020   -5.3890   22.3780 C   0  0  0  0  0  0  0  0  0  0  0  0
  1  2  1  0
  2  3  2  0
  2  4  1  0
  4  5  1  0
  5  6  1  0
  6  7  1  0
  7  8  1  0
  8  9  2  0
  8 10  1  0
 10 11  1  0
 11 12  1  0
 12 13  2  0
 13 14  1  0
 14 15  1  0
 15 16  1  0
 14 17  2  0
 17 18  1  0
 18 19  1  0
 17 20  1  0
 12 21  1  0
 20 21  2  0
 21 22  1  0
 22 23  1  0
  7 24  1  0
  4 25  1  0
 24 25  1  0
M  END
