piperidine-amides-19746-covalent
     RDKit          3D

 22 23  0  0  0  0  0  0  0  0999 V2000
    7.0480   -3.3890   19.4250 C   0  0  0  0  0  0  0  0  0  0  0  0
    6.3680   -4.2580   20.4220 C   0  0  0  0  0  0  0  0  0  0  0  0
    5.4200   -4.9280   20.0050 O   0  0  0  0  0  0  0  0  0  0  0  0
    6.8370   -4.3210   21.7480 N   0  0  0  0  0  0  0  0  0  0  0  0
    6.6460   -5.5020   22.5720 C   0  0  0  0  0  0  0  0  0  0  0  0
    6.0900   -5.1320   23.9380 C   0  0  0  0  0  0  0  0  0  0  0  0
    6.2170   -3.6220   24.1280 C   0  0  0  0  0  0  0  0  0  0  0  0
    5.8040   -3.1500   25.4860 C   0  0  0  0  0  0  0  0  0  0  0  0
    5.5520   -1.9530   25.6080 O   0  0  0  0  0  0  0  0  0  0  0  0
    5.6200   -3.9650   26.6270 N   0  0  0  0  0  0  0  0  0  0  0  0
    6.3310   -3.7050   27.8270 C   0  0  0  0  0  0  0  0  0  0  0  0
    6.3770   -5.0440   28.5350 C   0  0  2  0  0  0  0  0  0  0  0  0
    6.4960   -6.2410   27.9030 C   0  0  0  0  0  0  0  0  0  0  0  0
    5.0780   -5.0370   29.2230 N   0  0  0  0  0  0  0  0  0  0  0  0
    4.9660   -6.1420   30.1570 C   0  0  0  0  0  0  0  0  0  0  0  0
    4.7300   -7.3460   29.5700 C   0  0  0  0  0  0  0  0  0  0  0  0
    5.8290   -8.0470   29.8550 N   0  0  0  0  0  0  0  0  0  0  0  0
    4.1410   -5.1990   28.0970 C   0  0  1  0  0  0  0  0  0  0  0  0
    3.1420   -4.0800   28.1280 C   0  0  0  0  0  0  0  0  0  0  0  0
    4.2820   -4.0710   27.0880 C   0  0  0  0  0  0  0  0  0  0  0  0
    7.4920   -3.0570   23.6720 C   0  0  0  0  0  0  0  0  0  0  0  0
    7.7150   -3.2670   22.2170 C   0  0  0  0  0  0  0  0  0  0  0  0
  1  2  1  0
  2  3  2  0
  2  4  1  0
  4  5  1  0
  5  6  1  0
  6  7  1  0
  7  8  1  0
  8  9  2  0
  8 10  1  0
 10 11  1  0
 11 12  1  0
 12 13  1  6
 12 14  1  0
 14 15  1  0
 15 16  1  0
 16 17  3  0
 14 18  1  0
 18 19  1  1
 10 20  1  0
 18 20  1  0
  7 21  1  0
  4 22  1  0
 21 22  1  0
M  END
