piperidine-amides-354-covalent
     RDKit          3D

 29 31  0  0  0  0  0  0  0  0999 V2000
    7.0350   -3.3590   19.2630 C   0  0  0  0  0  0  0  0  0  0  0  0
    6.3490   -4.0860   20.3080 C   0  0  0  0  0  0  0  0  0  0  0  0
    5.3330   -4.7590   19.9600 O   0  0  0  0  0  0  0  0  0  0  0  0
    6.7690   -4.1360   21.6570 N   0  0  0  0  0  0  0  0  0  0  0  0
    6.6080   -5.4390   22.3400 C   0  0  0  0  0  0  0  0  0  0  0  0
    5.7150   -4.9640   23.5390 C   0  0  0  0  0  0  0  0  0  0  0  0
    6.5820   -3.9510   24.2380 C   0  0  0  0  0  0  0  0  0  0  0  0
    6.0280   -3.7330   25.7250 C   0  0  0  0  0  0  0  0  0  0  0  0
    5.5440   -4.7660   26.1340 O   0  0  0  0  0  0  0  0  0  0  0  0
    6.1860   -2.5380   26.1210 N   0  0  0  0  0  0  0  0  0  0  0  0
    6.1160   -1.2410   26.5360 C   0  0  0  0  0  0  0  0  0  0  0  0
    5.8150   -0.0580   25.9600 C   0  0  0  0  0  0  0  0  0  0  0  0
    5.7870    1.1840   26.6130 C   0  0  0  0  0  0  0  0  0  0  0  0
    6.0580    1.5090   28.0140 C   0  0  0  0  0  0  0  0  0  0  0  0
    6.4150    0.2240   28.7530 C   0  0  0  0  0  0  0  0  0  0  0  0
    6.4240   -0.9750   28.0210 C   0  0  0  0  0  0  0  0  0  0  0  0
    6.7900   -1.9390   28.9340 N   0  0  0  0  0  0  0  0  0  0  0  0
    7.6920   -0.9170   29.9760 S   0  0  0  0  0  0  0  0  0  0  0  0
    9.0640   -1.3700   30.0990 O   0  0  0  0  0  0  0  0  0  0  0  0
    7.6410    0.3720   29.2500 O   0  0  0  0  0  0  0  0  0  0  0  0
    6.9150   -0.3900   31.5060 C   0  0  0  0  0  0  0  0  0  0  0  0
    5.4030   -0.5250   31.5040 C   0  0  0  0  0  0  0  0  0  0  0  0
    4.8030   -0.0510   32.8670 C   0  0  0  0  0  0  0  0  0  0  0  0
    5.6350    0.4110   33.8670 C   0  0  0  0  0  0  0  0  0  0  0  0
    5.0060    0.7990   35.0160 F   0  0  0  0  0  0  0  0  0  0  0  0
    7.0090    0.4850   33.7370 C   0  0  0  0  0  0  0  0  0  0  0  0
    7.5890    0.0870   32.5740 C   0  0  0  0  0  0  0  0  0  0  0  0
    6.9300   -2.7350   23.4500 C   0  0  0  0  0  0  0  0  0  0  0  0
    7.5920   -3.1150   22.2750 C   0  0  0  0  0  0  0  0  0  0  0  0
  1  2  1  0
  2  3  2  0
  2  4  1  0
  4  5  1  0
  5  6  1  0
  6  7  1  0
  7  8  1  0
  8  9  2  0
  8 10  1  0
 10 11  1  0
 11 12  2  0
 12 13  1  0
 13 14  2  0
 14 15  1  0
 11 16  1  0
 15 16  2  0
 16 17  1  0
 18 17  1  0
 18 19  2  0
 18 20  2  0
 18 21  1  0
 21 22  2  0
 22 23  1  0
 23 24  2  0
 24 25  1  0
 24 26  1  0
 21 27  1  0
 26 27  2  0
  7 28  1  0
  4 29  1  0
 28 29  1  0
M  END
