piperidine-amides-10258-covalent
     RDKit          3D

 25 27  0  0  0  0  0  0  0  0999 V2000
    7.0600   -3.3010   19.2860 C   0  0  0  0  0  0  0  0  0  0  0  0
    6.3420   -4.0980   20.2880 C   0  0  0  0  0  0  0  0  0  0  0  0
    5.2770   -4.6450   19.9100 O   0  0  0  0  0  0  0  0  0  0  0  0
    6.8580   -4.2700   21.5720 N   0  0  0  0  0  0  0  0  0  0  0  0
    6.5810   -5.4770   22.3100 C   0  0  0  0  0  0  0  0  0  0  0  0
    5.9900   -5.0750   23.6310 C   0  0  0  0  0  0  0  0  0  0  0  0
    6.8000   -3.9800   24.2730 C   0  0  0  0  0  0  0  0  0  0  0  0
    6.0700   -3.3920   25.4080 C   0  0  0  0  0  0  0  0  0  0  0  0
    4.8270   -3.2570   25.3240 O   0  0  0  0  0  0  0  0  0  0  0  0
    6.7320   -2.9750   26.5750 N   0  0  0  0  0  0  0  0  0  0  0  0
    6.5300   -1.6650   27.1420 C   0  0  0  0  0  0  0  0  0  0  0  0
    7.2810   -1.4200   28.4210 C   0  0  0  0  0  0  0  0  0  0  0  0
    7.1770   -0.2280   29.0670 C   0  0  0  0  0  0  0  0  0  0  0  0
    6.3890    0.7900   28.5850 C   0  0  0  0  0  0  0  0  0  0  0  0
    5.6920    0.5780   27.4010 C   0  0  0  0  0  0  0  0  0  0  0  0
    5.7400   -0.6040   26.6740 C   0  0  0  0  0  0  0  0  0  0  0  0
    4.9870   -0.6900   25.5010 O   0  0  0  0  0  0  0  0  0  0  0  0
    3.5840   -0.7000   25.6850 C   0  0  0  0  0  0  0  0  0  0  0  0
    2.8400   -2.0100   25.5980 C   0  0  0  0  0  0  0  0  0  0  0  0
    6.3270    1.9740   29.2940 O   0  0  0  0  0  0  0  0  0  0  0  0
    6.7320    2.0490   30.6800 C   0  0  0  0  0  0  0  0  0  0  0  0
    7.3030    0.7690   31.2680 C   0  0  0  0  0  0  0  0  0  0  0  0
    7.8430    0.0420   30.2170 O   0  0  0  0  0  0  0  0  0  0  0  0
    7.0680   -2.8540   23.3190 C   0  0  0  0  0  0  0  0  0  0  0  0
    7.7380   -3.2800   22.2040 C   0  0  0  0  0  0  0  0  0  0  0  0
  1  2  1  0
  2  3  2  0
  2  4  1  0
  4  5  1  0
  5  6  1  0
  6  7  1  0
  7  8  1  0
  8  9  2  0
  8 10  1  0
 10 11  1  0
 11 12  2  0
 12 13  1  0
 13 14  2  0
 14 15  1  0
 11 16  1  0
 15 16  2  0
 16 17  1  0
 17 18  1  0
 18 19  1  0
 14 20  1  0
 20 21  1  0
 21 22  1  0
 13 23  1  0
 22 23  1  0
  7 24  1  0
  4 25  1  0
 24 25  1  0
M  END
