piperidine-amides-10235-covalent
     RDKit          3D

 25 27  0  0  0  0  0  0  0  0999 V2000
    7.0620   -3.3170   19.2840 C   0  0  0  0  0  0  0  0  0  0  0  0
    6.3660   -4.1260   20.2880 C   0  0  0  0  0  0  0  0  0  0  0  0
    5.3030   -4.6910   19.9250 O   0  0  0  0  0  0  0  0  0  0  0  0
    6.9010   -4.2840   21.5610 N   0  0  0  0  0  0  0  0  0  0  0  0
    6.5990   -5.4560   22.3440 C   0  0  0  0  0  0  0  0  0  0  0  0
    5.9230   -4.9980   23.6090 C   0  0  0  0  0  0  0  0  0  0  0  0
    6.6490   -3.8270   24.2100 C   0  0  0  0  0  0  0  0  0  0  0  0
    5.8800   -3.2540   25.3360 C   0  0  0  0  0  0  0  0  0  0  0  0
    4.6740   -2.9800   25.1540 O   0  0  0  0  0  0  0  0  0  0  0  0
    6.4540   -3.0210   26.5940 N   0  0  0  0  0  0  0  0  0  0  0  0
    6.4160   -1.7220   27.2110 C   0  0  0  0  0  0  0  0  0  0  0  0
    7.0110   -1.5050   28.5740 C   0  0  0  0  0  0  0  0  0  0  0  0
    6.9880   -0.2800   29.2080 C   0  0  0  0  0  0  0  0  0  0  0  0
    6.4200    0.8910   28.6750 C   0  0  0  0  0  0  0  0  0  0  0  0
    6.4540    2.0320   29.3980 N   0  0  0  0  0  0  0  0  0  0  0  0
    6.4030    3.2530   28.8400 C   0  0  0  0  0  0  0  0  0  0  0  0
    6.7880    3.4100   27.5240 O   0  0  0  0  0  0  0  0  0  0  0  0
    5.9490    4.2320   29.6920 C   0  0  0  0  0  0  0  0  0  0  0  0
    5.6750    3.5830   30.8570 C   0  0  0  0  0  0  0  0  0  0  0  0
    5.9970    2.1180   30.6650 C   0  0  0  0  0  0  0  0  0  0  0  0
    5.8300    1.1730   31.6120 O   0  0  0  0  0  0  0  0  0  0  0  0
    5.8460    0.7840   27.4050 C   0  0  0  0  0  0  0  0  0  0  0  0
    5.8170   -0.5020   26.6260 C   0  0  0  0  0  0  0  0  0  0  0  0
    6.8630   -2.7340   23.2140 C   0  0  0  0  0  0  0  0  0  0  0  0
    7.6670   -3.2180   22.2160 C   0  0  0  0  0  0  0  0  0  0  0  0
  1  2  1  0
  2  3  2  0
  2  4  1  0
  4  5  1  0
  5  6  1  0
  6  7  1  0
  7  8  1  0
  8  9  2  0
  8 10  1  0
 10 11  1  0
 11 12  2  0
 12 13  1  0
 13 14  2  0
 14 15  1  0
 15 16  1  0
 16 17  2  0
 16 18  1  0
 18 19  1  0
 15 20  1  0
 19 20  1  0
 20 21  2  0
 14 22  1  0
 11 23  1  0
 22 23  2  0
  7 24  1  0
  4 25  1  0
 24 25  1  0
M  END
