piperidine-amides-8589-covalent
     RDKit          3D

 23 25  0  0  0  0  0  0  0  0999 V2000
    7.1240   -3.3590   19.3170 C   0  0  0  0  0  0  0  0  0  0  0  0
    6.4120   -4.1760   20.2880 C   0  0  0  0  0  0  0  0  0  0  0  0
    5.3410   -4.7070   19.9470 O   0  0  0  0  0  0  0  0  0  0  0  0
    6.9910   -4.3950   21.5600 N   0  0  0  0  0  0  0  0  0  0  0  0
    7.6770   -3.3000   22.1740 C   0  0  0  0  0  0  0  0  0  0  0  0
    6.7890   -2.7470   23.2360 C   0  0  0  0  0  0  0  0  0  0  0  0
    6.5540   -3.8760   24.2110 C   0  0  0  0  0  0  0  0  0  0  0  0
    5.8250   -3.3340   25.3960 C   0  0  0  0  0  0  0  0  0  0  0  0
    4.6100   -3.5260   25.4280 O   0  0  0  0  0  0  0  0  0  0  0  0
    6.5660   -2.6510   26.3520 N   0  0  0  0  0  0  0  0  0  0  0  0
    5.9850   -1.6350   27.1570 C   0  0  2  0  0  0  0  0  0  0  0  0
    4.8260   -1.8550   27.9320 C   0  0  0  0  0  0  0  0  0  0  0  0
    4.7540   -2.9410   28.8080 C   0  0  0  0  0  0  0  0  0  0  0  0
    3.6660   -3.2870   29.6350 C   0  0  0  0  0  0  0  0  0  0  0  0
    2.5010   -2.3610   29.5240 C   0  0  0  0  0  0  0  0  0  0  0  0
    2.5640   -1.1740   28.5770 C   0  0  0  0  0  0  0  0  0  0  0  0
    3.7790   -0.9610   27.7840 C   0  0  0  0  0  0  0  0  0  0  0  0
    5.9340   -0.2900   26.4550 C   0  0  0  0  0  0  0  0  0  0  0  0
    5.9370    0.7930   27.5380 C   0  0  0  0  0  0  0  0  0  0  0  0
    6.0950   -0.0140   28.5860 N   0  0  0  0  0  0  0  0  0  0  0  0
    6.8380   -1.2460   28.3600 C   0  0  0  0  0  0  0  0  0  0  0  0
    5.6970   -4.9160   23.5380 C   0  0  0  0  0  0  0  0  0  0  0  0
    6.4190   -5.4600   22.3340 C   0  0  0  0  0  0  0  0  0  0  0  0
  1  2  1  0
  2  3  2  0
  2  4  1  0
  4  5  1  0
  5  6  1  0
  6  7  1  0
  7  8  1  0
  8  9  2  0
  8 10  1  0
 11 10  1  6
 11 12  1  0
 12 13  2  0
 13 14  1  0
 14 15  2  0
 15 16  1  0
 12 17  1  0
 16 17  2  0
 11 18  1  0
 18 19  1  0
 19 20  1  0
 11 21  1  0
 20 21  1  0
  7 22  1  0
  4 23  1  0
 22 23  1  0
M  END
