piperidine-amides-28127-covalent
     RDKit          3D

 26 27  0  0  0  0  0  0  0  0999 V2000
    7.0620   -3.3300   19.2430 C   0  0  0  0  0  0  0  0  0  0  0  0
    6.3880   -4.1390   20.2860 C   0  0  0  0  0  0  0  0  0  0  0  0
    5.3390   -4.7220   19.9460 O   0  0  0  0  0  0  0  0  0  0  0  0
    6.9370   -4.2820   21.5670 N   0  0  0  0  0  0  0  0  0  0  0  0
    7.6690   -3.2180   22.1740 C   0  0  0  0  0  0  0  0  0  0  0  0
    7.1710   -2.7970   23.4830 C   0  0  0  0  0  0  0  0  0  0  0  0
    6.5440   -3.8470   24.3120 C   0  0  0  0  0  0  0  0  0  0  0  0
    5.7180   -3.1970   25.3630 C   0  0  0  0  0  0  0  0  0  0  0  0
    4.5200   -2.9980   25.0910 O   0  0  0  0  0  0  0  0  0  0  0  0
    6.2150   -2.8070   26.6240 N   0  0  0  0  0  0  0  0  0  0  0  0
    5.9980   -3.7340   27.7590 C   0  0  0  0  0  0  0  0  0  0  0  0
    5.4960   -5.0650   27.3320 C   0  0  2  0  0  0  0  0  0  0  0  0
    4.0990   -5.1050   26.9300 C   0  0  0  0  0  0  0  0  0  0  0  0
    5.4630   -6.1000   28.2970 N   0  0  0  0  0  0  0  0  0  0  0  0
    6.5220   -6.1950   29.2130 C   0  0  0  0  0  0  0  0  0  0  0  0
    4.6870   -7.2940   28.0390 C   0  0  0  0  0  0  0  0  0  0  0  0
    6.2300   -1.4230   27.0790 C   0  0  0  0  0  0  0  0  0  0  0  0
    6.7060   -1.2170   28.3440 C   0  0  0  0  0  0  0  0  0  0  0  0
    7.1580   -2.1220   29.2090 C   0  0  0  0  0  0  0  0  0  0  0  0
    6.7900    0.0080   28.9510 C   0  0  0  0  0  0  0  0  0  0  0  0
    6.3690    1.2290   28.2900 C   0  0  0  0  0  0  0  0  0  0  0  0
    5.8320    1.0910   26.8950 C   0  0  0  0  0  0  0  0  0  0  0  0
    5.7980   -0.3190   26.3470 C   0  0  0  0  0  0  0  0  0  0  0  0
    5.3070   -0.5350   25.0450 C   0  0  0  0  0  0  0  0  0  0  0  0
    5.8890   -4.9310   23.5670 C   0  0  0  0  0  0  0  0  0  0  0  0
    6.6630   -5.4360   22.4020 C   0  0  0  0  0  0  0  0  0  0  0  0
  1  2  1  0
  2  3  2  0
  2  4  1  0
  4  5  1  0
  5  6  1  0
  6  7  1  0
  7  8  1  0
  8  9  2  0
  8 10  1  0
 10 11  1  0
 11 12  1  0
 12 13  1  1
 12 14  1  0
 14 15  1  0
 14 16  1  0
 10 17  1  0
 17 18  2  0
 18 19  1  0
 18 20  1  0
 20 21  2  0
 21 22  1  0
 17 23  1  0
 22 23  2  0
 23 24  1  0
  7 25  1  0
  4 26  1  0
 25 26  1  0
M  END
