piperidine-amides-8633-covalent
     RDKit          3D

 23 24  0  0  0  0  0  0  0  0999 V2000
    7.0400   -3.2920   19.2960 C   0  0  0  0  0  0  0  0  0  0  0  0
    6.3530   -4.0890   20.3190 C   0  0  0  0  0  0  0  0  0  0  0  0
    5.3690   -4.7600   19.9580 O   0  0  0  0  0  0  0  0  0  0  0  0
    6.8020   -4.1260   21.6690 N   0  0  0  0  0  0  0  0  0  0  0  0
    7.7190   -3.1230   22.1480 C   0  0  0  0  0  0  0  0  0  0  0  0
    7.5170   -3.0050   23.6170 C   0  0  0  0  0  0  0  0  0  0  0  0
    6.1230   -3.5380   23.8150 C   0  0  0  0  0  0  0  0  0  0  0  0
    5.5850   -3.2350   25.1830 C   0  0  0  0  0  0  0  0  0  0  0  0
    4.3660   -3.1320   25.2650 O   0  0  0  0  0  0  0  0  0  0  0  0
    6.4610   -3.0920   26.2550 N   0  0  0  0  0  0  0  0  0  0  0  0
    6.0660   -3.4120   27.5900 C   0  0  0  0  0  0  0  0  0  0  0  0
    6.4010   -4.7100   27.9930 C   0  0  0  0  0  0  0  0  0  0  0  0
    5.6620   -5.4910   28.8320 C   0  0  0  0  0  0  0  0  0  0  0  0
    6.3330   -6.5870   29.3420 C   0  0  0  0  0  0  0  0  0  0  0  0
    5.6160   -7.4920   30.2670 C   0  0  0  0  0  0  0  0  0  0  0  0
    4.1650   -7.2460   30.6660 C   0  0  0  0  0  0  0  0  0  0  0  0
    3.5860   -6.0420   30.0410 C   0  0  0  0  0  0  0  0  0  0  0  0
    2.3970   -5.7170   30.2870 O   0  0  0  0  0  0  0  0  0  0  0  0
    2.3370   -4.6560   31.1870 C   0  0  0  0  0  0  0  0  0  0  0  0
    4.3220   -5.2430   29.1830 C   0  0  0  0  0  0  0  0  0  0  0  0
    3.7080   -4.1370   28.6440 F   0  0  0  0  0  0  0  0  0  0  0  0
    6.1030   -5.0450   23.6460 C   0  0  0  0  0  0  0  0  0  0  0  0
    6.6870   -5.3600   22.4210 C   0  0  0  0  0  0  0  0  0  0  0  0
  1  2  1  0
  2  3  2  0
  2  4  1  0
  4  5  1  0
  5  6  1  0
  6  7  1  0
  7  8  1  0
  8  9  2  0
  8 10  1  0
 10 11  1  0
 11 12  1  0
 12 13  1  0
 13 14  2  0
 14 15  1  0
 15 16  2  0
 16 17  1  0
 17 18  1  0
 18 19  1  0
 13 20  1  0
 17 20  2  0
 20 21  1  0
  7 22  1  0
  4 23  1  0
 22 23  1  0
M  END
