piperidine-amides-34194-covalent
     RDKit          3D

 30 31  0  0  0  0  0  0  0  0999 V2000
    7.0830   -3.3730   19.3790 C   0  0  0  0  0  0  0  0  0  0  0  0
    6.3870   -4.2220   20.3540 C   0  0  0  0  0  0  0  0  0  0  0  0
    5.3750   -4.8640   19.9950 O   0  0  0  0  0  0  0  0  0  0  0  0
    6.8820   -4.3640   21.6670 N   0  0  0  0  0  0  0  0  0  0  0  0
    6.5010   -5.5140   22.4380 C   0  0  0  0  0  0  0  0  0  0  0  0
    5.5250   -4.9850   23.4970 C   0  0  0  0  0  0  0  0  0  0  0  0
    6.2220   -3.9030   24.3050 C   0  0  0  0  0  0  0  0  0  0  0  0
    5.2560   -3.2610   25.2500 C   0  0  0  0  0  0  0  0  0  0  0  0
    4.4370   -2.4670   24.7590 O   0  0  0  0  0  0  0  0  0  0  0  0
    5.2510   -3.5300   26.6580 N   0  0  0  0  0  0  0  0  0  0  0  0
    6.4370   -3.4300   27.3450 C   0  0  0  0  0  0  0  0  0  0  0  0
    6.5330   -4.6540   28.2700 C   0  0  2  0  0  0  0  0  0  0  0  0
    6.4900   -5.9330   27.8160 C   0  0  0  0  0  0  0  0  0  0  0  0
    7.1310   -6.8870   28.3230 O   0  0  0  0  0  0  0  0  0  0  0  0
    5.7000   -6.1780   26.7790 O   0  0  0  0  0  0  0  0  0  0  0  0
    4.5600   -6.6900   26.3600 C   0  0  0  0  0  0  0  0  0  0  0  0
    5.3830   -4.6760   29.0830 C   0  0  0  0  0  0  0  0  0  0  0  0
    4.2550   -3.9700   28.7740 C   0  0  0  0  0  0  0  0  0  0  0  0
    4.1510   -3.1170   27.5220 C   0  0  2  0  0  0  0  0  0  0  0  0
    3.0090   -4.0980   27.7030 C   0  0  0  0  0  0  0  0  0  0  0  0
    1.8710   -3.3700   28.3260 N   0  0  0  0  0  0  0  0  0  0  0  0
    0.6250   -3.8430   27.7070 C   0  0  0  0  0  0  0  0  0  0  0  0
    0.2420   -4.9830   27.9690 O   0  0  0  0  0  0  0  0  0  0  0  0
   -0.1370   -3.0530   26.8400 O   0  0  0  0  0  0  0  0  0  0  0  0
   -1.5330   -2.9110   26.9790 C   0  0  0  0  0  0  0  0  0  0  0  0
   -2.1160   -1.8370   26.2930 C   0  0  0  0  0  0  0  0  0  0  0  0
   -2.1180   -1.8620   27.8600 C   0  0  0  0  0  0  0  0  0  0  0  0
   -2.4060   -4.1740   26.7740 C   0  0  0  0  0  0  0  0  0  0  0  0
    6.8140   -2.7840   23.4530 C   0  0  0  0  0  0  0  0  0  0  0  0
    7.6660   -3.3400   22.2970 C   0  0  0  0  0  0  0  0  0  0  0  0
  1  2  1  0
  2  3  2  0
  2  4  1  0
  4  5  1  0
  5  6  1  0
  6  7  1  0
  7  8  1  0
  8  9  2  0
  8 10  1  0
 10 11  1  0
 11 12  1  0
 12 13  1  6
 13 14  2  0
 13 15  1  0
 15 16  1  0
 12 17  1  0
 17 18  2  0
 10 19  1  0
 18 19  1  0
 19 20  1  6
 20 21  1  0
 21 22  1  0
 22 23  2  0
 22 24  1  0
 25 24  1  0
 25 26  1  0
 25 27  1  0
 25 28  1  0
  7 29  1  0
  4 30  1  0
 29 30  1  0
M  END
