piperidine-amides-10413-covalent
     RDKit          3D

 25 27  0  0  0  0  0  0  0  0999 V2000
    7.0840   -3.3320   19.2920 C   0  0  0  0  0  0  0  0  0  0  0  0
    6.3330   -4.0950   20.2880 C   0  0  0  0  0  0  0  0  0  0  0  0
    5.2610   -4.6230   19.9040 O   0  0  0  0  0  0  0  0  0  0  0  0
    6.8390   -4.2580   21.5740 N   0  0  0  0  0  0  0  0  0  0  0  0
    6.5600   -5.4480   22.3400 C   0  0  0  0  0  0  0  0  0  0  0  0
    5.9100   -5.0190   23.6240 C   0  0  0  0  0  0  0  0  0  0  0  0
    6.6420   -3.8530   24.2370 C   0  0  0  0  0  0  0  0  0  0  0  0
    5.8620   -3.2790   25.3550 C   0  0  0  0  0  0  0  0  0  0  0  0
    4.6630   -2.9890   25.1540 O   0  0  0  0  0  0  0  0  0  0  0  0
    6.4090   -3.0520   26.6300 N   0  0  0  0  0  0  0  0  0  0  0  0
    6.3850   -1.7470   27.2390 C   0  0  0  0  0  0  0  0  0  0  0  0
    7.0590   -1.5000   28.5660 C   0  0  0  0  0  0  0  0  0  0  0  0
    7.0550   -0.2640   29.1870 C   0  0  0  0  0  0  0  0  0  0  0  0
    6.4370    0.8950   28.6750 C   0  0  0  0  0  0  0  0  0  0  0  0
    6.4970    2.0460   29.3760 N   0  0  0  0  0  0  0  0  0  0  0  0
    6.2320    2.1030   30.6770 C   0  0  0  0  0  0  0  0  0  0  0  0
    5.1990    2.9770   30.9700 C   0  0  0  0  0  0  0  0  0  0  0  0
    5.4270    4.2940   30.6330 C   0  0  0  0  0  0  0  0  0  0  0  0
    6.3980    4.3550   29.6970 N   0  0  0  0  0  0  0  0  0  0  0  0
    6.5580    3.2580   28.8170 C   0  0  0  0  0  0  0  0  0  0  0  0
    6.7660    3.2940   27.4610 O   0  0  0  0  0  0  0  0  0  0  0  0
    5.7910    0.7510   27.4440 C   0  0  0  0  0  0  0  0  0  0  0  0
    5.7360   -0.5430   26.6850 C   0  0  0  0  0  0  0  0  0  0  0  0
    6.8890   -2.7660   23.2430 C   0  0  0  0  0  0  0  0  0  0  0  0
    7.6670   -3.2300   22.2140 C   0  0  0  0  0  0  0  0  0  0  0  0
  1  2  1  0
  2  3  2  0
  2  4  1  0
  4  5  1  0
  5  6  1  0
  6  7  1  0
  7  8  1  0
  8  9  2  0
  8 10  1  0
 10 11  1  0
 11 12  2  0
 12 13  1  0
 13 14  2  0
 14 15  1  0
 15 16  1  0
 16 17  1  0
 17 18  1  0
 18 19  1  0
 15 20  1  0
 19 20  1  0
 20 21  2  0
 14 22  1  0
 11 23  1  0
 22 23  2  0
  7 24  1  0
  4 25  1  0
 24 25  1  0
M  END
