piperidine-amides-1962-covalent
     RDKit          3D

 23 25  0  0  0  0  0  0  0  0999 V2000
    7.0550   -3.2770   19.2080 C   0  0  0  0  0  0  0  0  0  0  0  0
    6.3080   -4.0610   20.2300 C   0  0  0  0  0  0  0  0  0  0  0  0
    5.2550   -4.5770   19.8770 O   0  0  0  0  0  0  0  0  0  0  0  0
    6.8200   -4.2200   21.5160 N   0  0  0  0  0  0  0  0  0  0  0  0
    7.5190   -3.1490   22.1720 C   0  0  0  0  0  0  0  0  0  0  0  0
    6.7050   -2.6820   23.3460 C   0  0  0  0  0  0  0  0  0  0  0  0
    6.3220   -3.8840   24.2200 C   0  0  0  0  0  0  0  0  0  0  0  0
    5.5870   -3.3780   25.3980 C   0  0  0  0  0  0  0  0  0  0  0  0
    4.4070   -3.0210   25.2620 O   0  0  0  0  0  0  0  0  0  0  0  0
    6.2080   -3.2910   26.6680 N   0  0  0  0  0  0  0  0  0  0  0  0
    7.0170   -4.3930   27.1370 C   0  0  0  0  0  0  0  0  0  0  0  0
    8.3400   -4.2300   26.4510 C   0  0  2  0  0  0  0  0  0  0  0  0
    9.5130   -4.2540   27.1270 C   0  0  0  0  0  0  0  0  0  0  0  0
   10.5410   -4.4110   26.2440 C   0  0  0  0  0  0  0  0  0  0  0  0
   10.3600   -3.6190   25.1490 C   0  0  2  0  0  0  0  0  0  0  0  0
   11.1250   -2.4010   24.6510 C   0  0  0  0  0  0  0  0  0  0  0  0
   11.0200   -2.0570   23.3240 O   0  0  0  0  0  0  0  0  0  0  0  0
    9.8140   -2.3260   25.3990 C   0  0  0  0  0  0  0  0  0  0  0  0
    8.6000   -2.7080   26.2000 C   0  0  0  0  0  0  0  0  0  0  0  0
    9.4010   -4.1650   24.3620 O   0  0  0  0  0  0  0  0  0  0  0  0
    8.5050   -4.8930   25.1510 C   0  0  0  0  0  0  0  0  0  0  0  0
    5.5610   -4.9340   23.4520 C   0  0  0  0  0  0  0  0  0  0  0  0
    6.4250   -5.3820   22.2840 C   0  0  0  0  0  0  0  0  0  0  0  0
  1  2  1  0
  2  3  2  0
  2  4  1  0
  4  5  1  0
  5  6  1  0
  6  7  1  0
  7  8  1  0
  8  9  2  0
  8 10  1  0
 10 11  1  0
 12 11  1  1
 12 13  1  0
 13 14  1  0
 14 15  1  0
 15 16  1  6
 16 17  1  0
 15 18  1  0
 12 19  1  0
 18 19  1  0
 15 20  1  0
 12 21  1  0
 20 21  1  0
  7 22  1  0
  4 23  1  0
 22 23  1  0
M  END
