piperidine-amides-2402-covalent
     RDKit          3D

 27 28  0  0  0  0  0  0  0  0999 V2000
    7.0130   -3.3380   19.3440 C   0  0  0  0  0  0  0  0  0  0  0  0
    6.3600   -4.1890   20.3780 C   0  0  0  0  0  0  0  0  0  0  0  0
    5.4170   -4.8830   19.9960 O   0  0  0  0  0  0  0  0  0  0  0  0
    6.8340   -4.2110   21.7000 N   0  0  0  0  0  0  0  0  0  0  0  0
    7.7310   -3.1930   22.2060 C   0  0  0  0  0  0  0  0  0  0  0  0
    7.4300   -2.9400   23.6480 C   0  0  0  0  0  0  0  0  0  0  0  0
    6.0450   -3.5100   23.9320 C   0  0  0  0  0  0  0  0  0  0  0  0
    5.6260   -3.1730   25.3140 C   0  0  0  0  0  0  0  0  0  0  0  0
    4.4190   -3.1440   25.5870 O   0  0  0  0  0  0  0  0  0  0  0  0
    6.5700   -2.8880   26.3160 N   0  0  0  0  0  0  0  0  0  0  0  0
    6.4670   -1.6760   27.1050 C   0  0  0  0  0  0  0  0  0  0  0  0
    5.9300   -0.4480   26.4630 C   0  0  0  0  0  0  0  0  0  0  0  0
    5.7750    0.7620   27.0730 C   0  0  0  0  0  0  0  0  0  0  0  0
    6.1430    0.8610   28.3970 C   0  0  0  0  0  0  0  0  0  0  0  0
    6.6520   -0.2320   29.0880 C   0  0  0  0  0  0  0  0  0  0  0  0
    7.0660   -0.2200   30.5450 C   0  0  0  0  0  0  0  0  0  0  0  0
    8.3560   -0.0370   30.9600 O   0  0  0  0  0  0  0  0  0  0  0  0
    5.9940   -0.3890   31.3490 N   0  0  0  0  0  0  0  0  0  0  0  0
    6.1410    0.3210   32.4910 C   0  0  0  0  0  0  0  0  0  0  0  0
    5.3660    1.5670   32.8270 C   0  0  0  0  0  0  0  0  0  0  0  0
    4.0380    0.9420   33.0910 C   0  0  0  0  0  0  0  0  0  0  0  0
    3.0230    1.6830   33.1420 O   0  0  0  0  0  0  0  0  0  0  0  0
    3.1150    3.0070   33.5900 C   0  0  0  0  0  0  0  0  0  0  0  0
    1.7850    3.4520   34.1770 C   0  0  0  0  0  0  0  0  0  0  0  0
    6.8360   -1.4900   28.5120 C   0  0  0  0  0  0  0  0  0  0  0  0
    6.0280   -5.0250   23.7320 C   0  0  0  0  0  0  0  0  0  0  0  0
    6.6410   -5.3890   22.5400 C   0  0  0  0  0  0  0  0  0  0  0  0
  1  2  1  0
  2  3  2  0
  2  4  1  0
  4  5  1  0
  5  6  1  0
  6  7  1  0
  7  8  1  0
  8  9  2  0
  8 10  1  0
 10 11  1  0
 11 12  2  0
 12 13  1  0
 13 14  2  0
 14 15  1  0
 15 16  1  0
 16 17  2  0
 16 18  1  0
 18 19  1  0
 19 20  1  0
 20 21  1  0
 21 22  1  0
 22 23  1  0
 23 24  1  0
 11 25  1  0
 15 25  2  0
  7 26  1  0
  4 27  1  0
 26 27  1  0
M  END
