piperidine-amides-18993-covalent
     RDKit          3D

 21 23  0  0  0  0  0  0  0  0999 V2000
    7.1600   -3.3780   19.4710 C   0  0  0  0  0  0  0  0  0  0  0  0
    6.4980   -4.2510   20.4090 C   0  0  0  0  0  0  0  0  0  0  0  0
    5.4680   -4.8890   20.0060 O   0  0  0  0  0  0  0  0  0  0  0  0
    6.9970   -4.4450   21.7220 N   0  0  0  0  0  0  0  0  0  0  0  0
    6.4250   -5.5340   22.5250 C   0  0  0  0  0  0  0  0  0  0  0  0
    5.4800   -4.6990   23.4830 C   0  0  0  0  0  0  0  0  0  0  0  0
    6.2980   -3.5810   24.1270 C   0  0  0  0  0  0  0  0  0  0  0  0
    5.3750   -2.7960   25.1560 C   0  0  0  0  0  0  0  0  0  0  0  0
    5.1040   -1.7060   24.7130 O   0  0  0  0  0  0  0  0  0  0  0  0
    5.1230   -3.4770   26.1810 N   0  0  0  0  0  0  0  0  0  0  0  0
    4.4190   -4.1930   27.0570 C   0  0  0  0  0  0  0  0  0  0  0  0
    4.7630   -5.2780   27.7130 C   0  0  2  0  0  0  0  0  0  0  0  0
    4.2190   -5.4030   29.0160 C   0  0  0  0  0  0  0  0  0  0  0  0
    2.8140   -5.5320   28.9840 F   0  0  0  0  0  0  0  0  0  0  0  0
    4.6410   -6.6600   29.5710 F   0  0  0  0  0  0  0  0  0  0  0  0
    6.2190   -4.9190   27.7510 C   0  0  0  0  0  0  0  0  0  0  0  0
    5.8440   -4.5220   29.1140 C   0  0  0  0  0  0  0  0  0  0  0  0
    7.0520   -5.1000   29.0880 C   0  0  0  0  0  0  0  0  0  0  0  0
    6.2470   -3.5300   27.0950 C   0  0  0  0  0  0  0  0  0  0  0  0
    7.1120   -2.7230   23.3040 C   0  0  0  0  0  0  0  0  0  0  0  0
    7.9400   -3.6390   22.3860 C   0  0  0  0  0  0  0  0  0  0  0  0
  1  2  1  0
  2  3  2  0
  2  4  1  0
  4  5  1  0
  5  6  1  0
  6  7  1  0
  7  8  1  0
  8  9  2  0
  8 10  1  0
 10 11  1  0
 11 12  1  0
 12 13  1  1
 13 14  1  0
 13 15  1  0
 12 16  1  0
 16 17  1  0
 16 18  1  0
 17 18  1  0
 10 19  1  0
 16 19  1  0
  7 20  1  0
  4 21  1  0
 20 21  1  0
M  END
