piperidine-amides-30122-covalent
     RDKit          3D

 27 30  0  0  0  0  0  0  0  0999 V2000
    7.0190   -3.3490   19.3910 C   0  0  0  0  0  0  0  0  0  0  0  0
    6.3740   -4.2460   20.3440 C   0  0  0  0  0  0  0  0  0  0  0  0
    5.3860   -4.8880   19.9900 O   0  0  0  0  0  0  0  0  0  0  0  0
    6.9100   -4.4310   21.6700 N   0  0  0  0  0  0  0  0  0  0  0  0
    7.6530   -3.3910   22.3360 C   0  0  0  0  0  0  0  0  0  0  0  0
    6.8470   -2.7990   23.4620 C   0  0  0  0  0  0  0  0  0  0  0  0
    6.3140   -3.9120   24.3630 C   0  0  0  0  0  0  0  0  0  0  0  0
    5.3170   -3.3340   25.3350 C   0  0  0  0  0  0  0  0  0  0  0  0
    4.4660   -2.5180   24.9500 O   0  0  0  0  0  0  0  0  0  0  0  0
    5.2980   -3.6900   26.7250 N   0  0  0  0  0  0  0  0  0  0  0  0
    6.4700   -3.5150   27.4510 C   0  0  0  0  0  0  0  0  0  0  0  0
    6.6060   -4.8430   28.1740 C   0  0  0  0  0  0  0  0  0  0  0  0
    5.5250   -5.1750   28.8690 C   0  0  0  0  0  0  0  0  0  0  0  0
    4.8180   -6.3060   28.4180 C   0  0  0  0  0  0  0  0  0  0  0  0
    3.8820   -6.8140   29.3040 C   0  0  0  0  0  0  0  0  0  0  0  0
    4.1960   -7.4280   30.5170 N   0  0  0  0  0  0  0  0  0  0  0  0
    2.9400   -7.7520   31.0380 C   0  0  0  0  0  0  0  0  0  0  0  0
    2.8410   -8.3810   32.2620 C   0  0  2  0  0  0  0  0  0  0  0  0
    2.9270   -7.9180   33.4140 C   0  0  0  0  0  0  0  0  0  0  0  0
    4.2170   -8.4360   33.0590 C   0  0  2  0  0  0  0  0  0  0  0  0
    5.3600   -7.5790   32.6990 C   0  0  0  0  0  0  0  0  0  0  0  0
    1.9930   -7.3410   30.1480 N   0  0  0  0  0  0  0  0  0  0  0  0
    2.6400   -6.7670   29.0960 O   0  0  0  0  0  0  0  0  0  0  0  0
    4.5690   -4.1860   28.9000 C   0  0  0  0  0  0  0  0  0  0  0  0
    4.1770   -3.6720   27.6440 C   0  0  0  0  0  0  0  0  0  0  0  0
    5.6310   -5.0030   23.5580 C   0  0  0  0  0  0  0  0  0  0  0  0
    6.5510   -5.5680   22.4650 C   0  0  0  0  0  0  0  0  0  0  0  0
  1  2  1  0
  2  3  2  0
  2  4  1  0
  4  5  1  0
  5  6  1  0
  6  7  1  0
  7  8  1  0
  8  9  2  0
  8 10  1  0
 10 11  1  0
 11 12  1  0
 12 13  1  0
 13 14  1  0
 14 15  1  0
 15 16  2  0
 16 17  1  0
 18 17  1  6
 18 19  1  0
 18 20  1  0
 19 20  1  0
 20 21  1  6
 17 22  2  0
 15 23  1  0
 22 23  1  0
 13 24  1  0
 10 25  1  0
 24 25  1  0
  7 26  1  0
  4 27  1  0
 26 27  1  0
M  END
