piperidine-amides-10015-covalent
     RDKit          3D

 26 27  0  0  0  0  0  0  0  0999 V2000
    7.1480   -3.2450   19.1510 C   0  0  0  0  0  0  0  0  0  0  0  0
    6.3760   -3.9650   20.1650 C   0  0  0  0  0  0  0  0  0  0  0  0
    5.2520   -4.4070   19.8200 O   0  0  0  0  0  0  0  0  0  0  0  0
    6.9120   -4.1900   21.4250 N   0  0  0  0  0  0  0  0  0  0  0  0
    7.6970   -3.1830   22.1010 C   0  0  0  0  0  0  0  0  0  0  0  0
    6.9610   -2.7520   23.3350 C   0  0  0  0  0  0  0  0  0  0  0  0
    6.5240   -3.9380   24.1510 C   0  0  0  0  0  0  0  0  0  0  0  0
    5.7060   -3.5170   25.3030 C   0  0  0  0  0  0  0  0  0  0  0  0
    4.5170   -3.1770   25.1020 O   0  0  0  0  0  0  0  0  0  0  0  0
    6.2120   -3.4690   26.6090 N   0  0  0  0  0  0  0  0  0  0  0  0
    5.9810   -4.4860   27.6190 C   0  0  1  0  0  0  0  0  0  0  0  0
    6.4090   -3.8210   28.8960 C   0  0  0  0  0  0  0  0  0  0  0  0
    5.8300   -2.6380   29.3170 C   0  0  0  0  0  0  0  0  0  0  0  0
    6.5610   -1.5180   29.6590 C   0  0  0  0  0  0  0  0  0  0  0  0
    5.8020   -0.6130   30.2300 O   0  0  0  0  0  0  0  0  0  0  0  0
    7.9080   -1.3020   29.4710 O   0  0  0  0  0  0  0  0  0  0  0  0
    8.4090   -0.1860   28.7910 C   0  0  0  0  0  0  0  0  0  0  0  0
    4.7510   -5.1060   27.8030 C   0  0  0  0  0  0  0  0  0  0  0  0
    4.2680   -6.0300   26.9020 C   0  0  0  0  0  0  0  0  0  0  0  0
    4.8190   -6.0940   25.4770 C   0  0  0  0  0  0  0  0  0  0  0  0
    4.1470   -7.1710   24.6160 C   0  0  0  0  0  0  0  0  0  0  0  0
    3.0730   -8.0510   25.1490 C   0  0  0  0  0  0  0  0  0  0  0  0
    2.6550   -7.8630   26.5680 C   0  0  0  0  0  0  0  0  0  0  0  0
    3.2520   -6.8960   27.3430 C   0  0  0  0  0  0  0  0  0  0  0  0
    5.7160   -4.8710   23.2750 C   0  0  0  0  0  0  0  0  0  0  0  0
    6.5980   -5.3880   22.1640 C   0  0  0  0  0  0  0  0  0  0  0  0
  1  2  1  0
  2  3  2  0
  2  4  1  0
  4  5  1  0
  5  6  1  0
  6  7  1  0
  7  8  1  0
  8  9  2  0
  8 10  1  0
 10 11  1  0
 11 12  1  1
 12 13  1  0
 13 14  1  0
 14 15  2  0
 14 16  1  0
 16 17  1  0
 11 18  1  0
 18 19  1  0
 19 20  2  0
 20 21  1  0
 21 22  2  0
 22 23  1  0
 19 24  1  0
 23 24  2  0
  7 25  1  0
  4 26  1  0
 25 26  1  0
M  END
