piperidine-amides-13442-covalent
     RDKit          3D

 22 23  0  0  0  0  0  0  0  0999 V2000
    7.0690   -3.3200   19.2940 C   0  0  0  0  0  0  0  0  0  0  0  0
    6.3620   -4.1610   20.2990 C   0  0  0  0  0  0  0  0  0  0  0  0
    5.3460   -4.7910   19.9590 O   0  0  0  0  0  0  0  0  0  0  0  0
    6.8840   -4.2650   21.6030 N   0  0  0  0  0  0  0  0  0  0  0  0
    7.7650   -3.2610   22.1530 C   0  0  0  0  0  0  0  0  0  0  0  0
    7.0720   -2.6840   23.3730 C   0  0  0  0  0  0  0  0  0  0  0  0
    6.6870   -3.8390   24.2230 C   0  0  0  0  0  0  0  0  0  0  0  0
    5.9980   -3.3730   25.4400 C   0  0  0  0  0  0  0  0  0  0  0  0
    4.7580   -3.4050   25.4470 O   0  0  0  0  0  0  0  0  0  0  0  0
    6.7900   -2.9190   26.5020 N   0  0  0  0  0  0  0  0  0  0  0  0
    6.6900   -1.7140   27.2560 C   0  0  0  0  0  0  0  0  0  0  0  0
    7.1590   -1.6510   28.5450 C   0  0  0  0  0  0  0  0  0  0  0  0
    7.0840   -0.5020   29.3310 C   0  0  0  0  0  0  0  0  0  0  0  0
    6.5260    0.6480   28.8380 C   0  0  0  0  0  0  0  0  0  0  0  0
    6.0040    0.6490   27.4510 C   0  0  0  0  0  0  0  0  0  0  0  0
    5.3720    1.8920   26.8170 C   0  0  0  0  0  0  0  0  0  0  0  0
    6.1140   -0.5160   26.7500 C   0  0  0  0  0  0  0  0  0  0  0  0
    5.6620   -0.6250   25.4510 C   0  0  0  0  0  0  0  0  0  0  0  0
    4.5010    0.1180   25.4650 O   0  0  0  0  0  0  0  0  0  0  0  0
    4.2300    1.0290   24.4330 C   0  0  0  0  0  0  0  0  0  0  0  0
    5.8670   -4.8960   23.5370 C   0  0  0  0  0  0  0  0  0  0  0  0
    6.5460   -5.3750   22.4440 C   0  0  0  0  0  0  0  0  0  0  0  0
  1  2  1  0
  2  3  2  0
  2  4  1  0
  4  5  1  0
  5  6  1  0
  6  7  1  0
  7  8  1  0
  8  9  2  0
  8 10  1  0
 10 11  1  0
 11 12  2  0
 12 13  1  0
 13 14  2  0
 14 15  1  0
 15 16  1  0
 11 17  1  0
 15 17  2  0
 17 18  1  0
 18 19  1  0
 19 20  1  0
  7 21  1  0
  4 22  1  0
 21 22  1  0
M  END
