piperidine-amides-8716-covalent
     RDKit          3D

 23 24  0  0  0  0  0  0  0  0999 V2000
    7.0180   -3.3420   19.3580 C   0  0  0  0  0  0  0  0  0  0  0  0
    6.3490   -4.1860   20.3510 C   0  0  0  0  0  0  0  0  0  0  0  0
    5.3810   -4.8730   19.9810 O   0  0  0  0  0  0  0  0  0  0  0  0
    6.8190   -4.2360   21.6870 N   0  0  0  0  0  0  0  0  0  0  0  0
    7.7050   -3.2000   22.1510 C   0  0  0  0  0  0  0  0  0  0  0  0
    7.4360   -2.8950   23.5830 C   0  0  0  0  0  0  0  0  0  0  0  0
    6.1240   -3.5530   23.9130 C   0  0  0  0  0  0  0  0  0  0  0  0
    5.7990   -3.2150   25.3300 C   0  0  0  0  0  0  0  0  0  0  0  0
    4.6930   -3.5380   25.7600 O   0  0  0  0  0  0  0  0  0  0  0  0
    6.8090   -2.5460   26.0150 N   0  0  0  0  0  0  0  0  0  0  0  0
    6.5780   -1.5050   26.9580 C   0  0  0  0  0  0  0  0  0  0  0  0
    6.9860   -1.5020   28.2580 C   0  0  0  0  0  0  0  0  0  0  0  0
    6.7660   -0.4830   29.1450 C   0  0  0  0  0  0  0  0  0  0  0  0
    6.1150    0.7800   29.0540 C   0  0  0  0  0  0  0  0  0  0  0  0
    5.4250    1.9160   28.6490 O   0  0  0  0  0  0  0  0  0  0  0  0
    4.1530    2.0040   29.1580 C   0  0  0  0  0  0  0  0  0  0  0  0
    2.8590    1.4340   28.5330 C   0  0  0  0  0  0  0  0  0  0  0  0
    5.7280    0.6660   27.6650 N   0  0  0  0  0  0  0  0  0  0  0  0
    5.9020   -0.3360   26.6510 C   0  0  0  0  0  0  0  0  0  0  0  0
    5.4230   -0.1900   25.3660 O   0  0  0  0  0  0  0  0  0  0  0  0
    4.0380   -0.0850   25.1090 C   0  0  0  0  0  0  0  0  0  0  0  0
    6.0700   -5.0150   23.7370 C   0  0  0  0  0  0  0  0  0  0  0  0
    6.6280   -5.3980   22.5330 C   0  0  0  0  0  0  0  0  0  0  0  0
  1  2  1  0
  2  3  2  0
  2  4  1  0
  4  5  1  0
  5  6  1  0
  6  7  1  0
  7  8  1  0
  8  9  2  0
  8 10  1  0
 10 11  1  0
 11 12  2  0
 12 13  1  0
 13 14  2  0
 14 15  1  0
 15 16  1  0
 16 17  1  0
 14 18  1  0
 11 19  1  0
 18 19  2  0
 19 20  1  0
 20 21  1  0
  7 22  1  0
  4 23  1  0
 22 23  1  0
M  END
