piperidine-amides-9126-covalent
     RDKit          3D

 21 23  0  0  0  0  0  0  0  0999 V2000
    7.0430   -3.3290   19.3350 C   0  0  0  0  0  0  0  0  0  0  0  0
    6.3520   -4.1510   20.3310 C   0  0  0  0  0  0  0  0  0  0  0  0
    5.3660   -4.8140   19.9730 O   0  0  0  0  0  0  0  0  0  0  0  0
    6.7990   -4.2500   21.6610 N   0  0  0  0  0  0  0  0  0  0  0  0
    6.6980   -5.4910   22.3990 C   0  0  0  0  0  0  0  0  0  0  0  0
    6.0860   -5.1490   23.7320 C   0  0  0  0  0  0  0  0  0  0  0  0
    6.0760   -3.6680   23.9790 C   0  0  0  0  0  0  0  0  0  0  0  0
    5.6510   -3.2820   25.3480 C   0  0  0  0  0  0  0  0  0  0  0  0
    4.4180   -3.2280   25.6470 O   0  0  0  0  0  0  0  0  0  0  0  0
    6.5660   -2.9550   26.3710 N   0  0  0  0  0  0  0  0  0  0  0  0
    6.4930   -1.6680   27.0980 C   0  0  0  0  0  0  0  0  0  0  0  0
    7.0510   -1.6460   28.4820 C   0  0  0  0  0  0  0  0  0  0  0  0
    7.0290   -0.4180   29.3030 C   0  0  0  0  0  0  0  0  0  0  0  0
    6.4260    0.8240   28.7140 C   0  0  0  0  0  0  0  0  0  0  0  0
    6.3010    2.1220   29.3370 N   0  0  0  0  0  0  0  0  0  0  0  0
    5.6550    2.8610   28.2760 C   0  0  0  0  0  0  0  0  0  0  0  0
    5.4580    1.9620   27.1440 C   0  0  0  0  0  0  0  0  0  0  0  0
    5.8910    0.6720   27.2870 C   0  0  0  0  0  0  0  0  0  0  0  0
    5.8830   -0.4500   26.4620 C   0  0  0  0  0  0  0  0  0  0  0  0
    7.4220   -3.0140   23.6730 C   0  0  0  0  0  0  0  0  0  0  0  0
    7.6410   -3.1770   22.1690 C   0  0  0  0  0  0  0  0  0  0  0  0
  1  2  1  0
  2  3  2  0
  2  4  1  0
  4  5  1  0
  5  6  1  0
  6  7  1  0
  7  8  1  0
  8  9  2  0
  8 10  1  0
 10 11  1  0
 11 12  2  0
 12 13  1  0
 13 14  2  0
 14 15  1  0
 15 16  1  0
 16 17  2  0
 14 18  1  0
 17 18  1  0
 11 19  1  0
 18 19  2  0
  7 20  1  0
  4 21  1  0
 20 21  1  0
M  END
