piperidine-amides-21746-covalent
     RDKit          3D

 23 25  0  0  0  0  0  0  0  0999 V2000
    7.0400   -3.3680   19.3830 C   0  0  0  0  0  0  0  0  0  0  0  0
    6.4100   -4.2470   20.3760 C   0  0  0  0  0  0  0  0  0  0  0  0
    5.3800   -4.8560   19.9860 O   0  0  0  0  0  0  0  0  0  0  0  0
    6.9620   -4.4320   21.6580 N   0  0  0  0  0  0  0  0  0  0  0  0
    6.5880   -5.5510   22.4800 C   0  0  0  0  0  0  0  0  0  0  0  0
    5.7120   -5.0340   23.5970 C   0  0  0  0  0  0  0  0  0  0  0  0
    6.3070   -3.8650   24.3560 C   0  0  0  0  0  0  0  0  0  0  0  0
    5.2760   -3.3050   25.2900 C   0  0  0  0  0  0  0  0  0  0  0  0
    4.2840   -2.7830   24.7570 O   0  0  0  0  0  0  0  0  0  0  0  0
    5.3240   -3.3140   26.7160 N   0  0  0  0  0  0  0  0  0  0  0  0
    4.1680   -3.3900   27.5430 C   0  0  0  0  0  0  0  0  0  0  0  0
    4.5910   -3.9240   28.9110 C   0  0  0  0  0  0  0  0  0  0  0  0
    5.5960   -4.8340   29.0650 C   0  0  0  0  0  0  0  0  0  0  0  0
    5.2490   -6.1670   29.0780 C   0  0  0  0  0  0  0  0  0  0  0  0
    5.1400   -6.6170   30.3400 N   0  0  0  0  0  0  0  0  0  0  0  0
    4.4080   -6.1720   31.3660 C   0  0  0  0  0  0  0  0  0  0  0  0
    4.7320   -7.0820   32.4730 N   0  0  0  0  0  0  0  0  0  0  0  0
    5.6070   -7.9410   31.9530 N   0  0  0  0  0  0  0  0  0  0  0  0
    5.8770   -7.6590   30.5920 C   0  0  0  0  0  0  0  0  0  0  0  0
    6.6140   -4.5960   28.2230 C   0  0  0  0  0  0  0  0  0  0  0  0
    6.5150   -3.3340   27.3710 C   0  0  0  0  0  0  0  0  0  0  0  0
    6.7770   -2.7720   23.4430 C   0  0  0  0  0  0  0  0  0  0  0  0
    7.6060   -3.2790   22.2820 C   0  0  0  0  0  0  0  0  0  0  0  0
  1  2  1  0
  2  3  2  0
  2  4  1  0
  4  5  1  0
  5  6  1  0
  6  7  1  0
  7  8  1  0
  8  9  2  0
  8 10  1  0
 10 11  1  0
 11 12  1  0
 12 13  1  0
 13 14  1  0
 14 15  1  0
 15 16  1  0
 16 17  2  0
 17 18  1  0
 15 19  1  0
 18 19  2  0
 13 20  1  0
 10 21  1  0
 20 21  1  0
  7 22  1  0
  4 23  1  0
 22 23  1  0
M  END
