piperidine-amides-14744-covalent
     RDKit          3D

 22 24  0  0  0  0  0  0  0  0999 V2000
    7.0180   -3.3240   19.3360 C   0  0  0  0  0  0  0  0  0  0  0  0
    6.3660   -4.1580   20.3520 C   0  0  0  0  0  0  0  0  0  0  0  0
    5.4060   -4.8630   19.9860 O   0  0  0  0  0  0  0  0  0  0  0  0
    6.8380   -4.1840   21.6990 N   0  0  0  0  0  0  0  0  0  0  0  0
    7.7320   -3.1420   22.1580 C   0  0  0  0  0  0  0  0  0  0  0  0
    7.5900   -2.9710   23.6350 C   0  0  0  0  0  0  0  0  0  0  0  0
    6.2390   -3.5440   23.9290 C   0  0  0  0  0  0  0  0  0  0  0  0
    5.8190   -3.2580   25.3390 C   0  0  0  0  0  0  0  0  0  0  0  0
    4.7820   -3.8060   25.7040 O   0  0  0  0  0  0  0  0  0  0  0  0
    6.5800   -2.3960   26.1340 N   0  0  0  0  0  0  0  0  0  0  0  0
    5.9430   -1.6840   27.1920 C   0  0  0  0  0  0  0  0  0  0  0  0
    5.6010   -0.3120   27.0340 C   0  0  0  0  0  0  0  0  0  0  0  0
    6.4230   -0.0120   28.2190 N   0  0  0  0  0  0  0  0  0  0  0  0
    6.1140    0.2780   29.5730 C   0  0  0  0  0  0  0  0  0  0  0  0
    7.0080   -0.0000   30.6360 C   0  0  0  0  0  0  0  0  0  0  0  0
    6.6890    0.3050   32.0890 C   0  0  0  0  0  0  0  0  0  0  0  0
    5.4900    0.8560   32.2640 N   0  0  0  0  0  0  0  0  0  0  0  0
    4.5610    1.1690   31.3710 C   0  0  0  0  0  0  0  0  0  0  0  0
    4.7770    0.9140   29.9470 C   0  0  0  0  0  0  0  0  0  0  0  0
    6.9680   -1.3190   28.2660 C   0  0  0  0  0  0  0  0  0  0  0  0
    6.0870   -4.9910   23.6920 C   0  0  0  0  0  0  0  0  0  0  0  0
    6.7150   -5.3760   22.5200 C   0  0  0  0  0  0  0  0  0  0  0  0
  1  2  1  0
  2  3  2  0
  2  4  1  0
  4  5  1  0
  5  6  1  0
  6  7  1  0
  7  8  1  0
  8  9  2  0
  8 10  1  0
 10 11  1  0
 11 12  1  0
 12 13  1  0
 13 14  1  0
 14 15  2  0
 15 16  1  0
 16 17  2  0
 17 18  1  0
 14 19  1  0
 18 19  2  0
 11 20  1  0
 13 20  1  0
  7 21  1  0
  4 22  1  0
 21 22  1  0
M  END
