piperidine-amides-8913-covalent
     RDKit          3D

 22 23  0  0  0  0  0  0  0  0999 V2000
    7.0540   -3.3630   19.3650 C   0  0  0  0  0  0  0  0  0  0  0  0
    6.3450   -4.1730   20.3510 C   0  0  0  0  0  0  0  0  0  0  0  0
    5.3520   -4.8170   19.9720 O   0  0  0  0  0  0  0  0  0  0  0  0
    6.8190   -4.2430   21.6870 N   0  0  0  0  0  0  0  0  0  0  0  0
    7.6960   -3.2050   22.1710 C   0  0  0  0  0  0  0  0  0  0  0  0
    7.4500   -2.9670   23.6240 C   0  0  0  0  0  0  0  0  0  0  0  0
    6.1100   -3.5830   23.9060 C   0  0  0  0  0  0  0  0  0  0  0  0
    5.7000   -3.2430   25.3020 C   0  0  0  0  0  0  0  0  0  0  0  0
    4.5230   -3.4380   25.6000 O   0  0  0  0  0  0  0  0  0  0  0  0
    6.6830   -2.7260   26.1360 N   0  0  0  0  0  0  0  0  0  0  0  0
    6.4400   -1.7010   27.0980 C   0  0  0  0  0  0  0  0  0  0  0  0
    6.6680   -1.8030   28.4920 C   0  0  0  0  0  0  0  0  0  0  0  0
    6.4080   -0.7770   29.3510 C   0  0  0  0  0  0  0  0  0  0  0  0
    5.6720    0.2790   28.8940 C   0  0  0  0  0  0  0  0  0  0  0  0
    5.1740    0.3600   27.5880 N   0  0  0  0  0  0  0  0  0  0  0  0
    3.7950    0.8200   27.4300 C   0  0  0  0  0  0  0  0  0  0  0  0
    3.5450    1.8760   28.5290 C   0  0  0  0  0  0  0  0  0  0  0  0
    3.6880    1.2300   26.1160 C   0  0  0  0  0  0  0  0  0  0  0  0
    5.8830   -0.3660   26.5600 C   0  0  0  0  0  0  0  0  0  0  0  0
    6.0300    0.0260   25.3730 O   0  0  0  0  0  0  0  0  0  0  0  0
    6.0290   -5.0370   23.7180 C   0  0  0  0  0  0  0  0  0  0  0  0
    6.6160   -5.4130   22.5230 C   0  0  0  0  0  0  0  0  0  0  0  0
  1  2  1  0
  2  3  2  0
  2  4  1  0
  4  5  1  0
  5  6  1  0
  6  7  1  0
  7  8  1  0
  8  9  2  0
  8 10  1  0
 10 11  1  0
 11 12  2  0
 12 13  1  0
 13 14  2  0
 14 15  1  0
 15 16  1  0
 16 17  1  0
 16 18  1  0
 11 19  1  0
 15 19  1  0
 19 20  2  0
  7 21  1  0
  4 22  1  0
 21 22  1  0
M  END
