piperidine-amides-19858-covalent
     RDKit          3D

 22 24  0  0  0  0  0  0  0  0999 V2000
    7.1110   -3.2850   19.2570 C   0  0  0  0  0  0  0  0  0  0  0  0
    6.3290   -4.0380   20.2680 C   0  0  0  0  0  0  0  0  0  0  0  0
    5.2840   -4.5620   19.8930 O   0  0  0  0  0  0  0  0  0  0  0  0
    6.8220   -4.1630   21.5720 N   0  0  0  0  0  0  0  0  0  0  0  0
    6.5060   -5.2840   22.4140 C   0  0  0  0  0  0  0  0  0  0  0  0
    5.7650   -4.7860   23.6290 C   0  0  0  0  0  0  0  0  0  0  0  0
    6.5430   -3.6610   24.3290 C   0  0  0  0  0  0  0  0  0  0  0  0
    5.7040   -3.2310   25.4780 C   0  0  0  0  0  0  0  0  0  0  0  0
    4.4840   -3.4310   25.4160 O   0  0  0  0  0  0  0  0  0  0  0  0
    6.2240   -2.5930   26.6390 N   0  0  0  0  0  0  0  0  0  0  0  0
    6.2340   -3.3290   27.9150 C   0  0  0  0  0  0  0  0  0  0  0  0
    5.8570   -2.1400   28.6610 C   0  0  0  0  0  0  0  0  0  0  0  0
    4.6920   -2.4420   29.3250 O   0  0  0  0  0  0  0  0  0  0  0  0
    6.6180   -1.3940   29.5200 C   0  0  0  0  0  0  0  0  0  0  0  0
    7.9970   -1.1540   29.5760 N   0  0  0  0  0  0  0  0  0  0  0  0
    8.2510   -0.3070   30.6810 C   0  0  0  0  0  0  0  0  0  0  0  0
    7.1120   -0.0110   31.3000 N   0  0  0  0  0  0  0  0  0  0  0  0
    6.1660   -0.6610   30.6010 N   0  0  0  0  0  0  0  0  0  0  0  0
    4.9270   -0.4760   31.0950 C   0  0  0  0  0  0  0  0  0  0  0  0
    5.7800   -1.3710   27.3980 C   0  0  0  0  0  0  0  0  0  0  0  0
    6.9110   -2.5570   23.3930 C   0  0  0  0  0  0  0  0  0  0  0  0
    7.5760   -3.0770   22.1530 C   0  0  0  0  0  0  0  0  0  0  0  0
  1  2  1  0
  2  3  2  0
  2  4  1  0
  4  5  1  0
  5  6  1  0
  6  7  1  0
  7  8  1  0
  8  9  2  0
  8 10  1  0
 10 11  1  0
 11 12  1  0
 12 13  1  0
 12 14  1  0
 14 15  2  0
 15 16  1  0
 16 17  2  0
 14 18  1  0
 17 18  1  0
 18 19  1  0
 10 20  1  0
 12 20  1  0
  7 21  1  0
  4 22  1  0
 21 22  1  0
M  END
