piperidine-amides-13606-covalent
     RDKit          3D

 30 32  0  0  0  0  0  0  0  0999 V2000
    7.1560   -3.2680   19.2040 C   0  0  0  0  0  0  0  0  0  0  0  0
    6.3920   -4.0500   20.2170 C   0  0  0  0  0  0  0  0  0  0  0  0
    5.3070   -4.5620   19.8870 O   0  0  0  0  0  0  0  0  0  0  0  0
    6.9350   -4.2470   21.5030 N   0  0  0  0  0  0  0  0  0  0  0  0
    6.4710   -5.3250   22.3250 C   0  0  0  0  0  0  0  0  0  0  0  0
    5.5780   -4.6650   23.3810 C   0  0  0  0  0  0  0  0  0  0  0  0
    6.3720   -3.5670   24.0280 C   0  0  0  0  0  0  0  0  0  0  0  0
    5.5590   -2.7040   24.9160 C   0  0  0  0  0  0  0  0  0  0  0  0
    4.4800   -2.3070   24.4710 O   0  0  0  0  0  0  0  0  0  0  0  0
    6.0140   -2.4000   26.1940 N   0  0  0  0  0  0  0  0  0  0  0  0
    5.9940   -3.3820   27.1790 C   0  0  1  0  0  0  0  0  0  0  0  0
    4.8390   -4.1260   27.2730 C   0  0  0  0  0  0  0  0  0  0  0  0
    4.7430   -5.2860   26.4540 C   0  0  0  0  0  0  0  0  0  0  0  0
    3.6590   -6.1430   26.4190 C   0  0  0  0  0  0  0  0  0  0  0  0
    2.4870   -5.8770   27.2780 C   0  0  0  0  0  0  0  0  0  0  0  0
    1.0890   -6.9480   27.2550 Cl  0  0  0  0  0  0  0  0  0  0  0  0
    2.5090   -4.6570   28.1820 C   0  0  0  0  0  0  0  0  0  0  0  0
    3.7840   -3.8230   28.0920 C   0  0  0  0  0  0  0  0  0  0  0  0
    7.0600   -4.1980   27.0030 C   0  0  0  0  0  0  0  0  0  0  0  0
    8.0830   -3.9880   25.9710 C   0  0  0  0  0  0  0  0  0  0  0  0
    9.1430   -5.0820   25.9880 C   0  0  0  0  0  0  0  0  0  0  0  0
    9.3740   -6.2160   26.7440 C   0  0  0  0  0  0  0  0  0  0  0  0
    8.1830   -6.1550   27.7240 C   0  0  0  0  0  0  0  0  0  0  0  0
    7.0700   -5.2140   27.8630 C   0  0  0  0  0  0  0  0  0  0  0  0
    5.9960   -5.4280   28.9450 C   0  0  0  0  0  0  0  0  0  0  0  0
    6.5360   -6.2820   29.8410 F   0  0  0  0  0  0  0  0  0  0  0  0
    4.8400   -6.1000   28.5570 F   0  0  0  0  0  0  0  0  0  0  0  0
    5.5840   -4.3260   29.6530 F   0  0  0  0  0  0  0  0  0  0  0  0
    6.9560   -2.5550   23.0670 C   0  0  0  0  0  0  0  0  0  0  0  0
    7.6830   -3.1740   22.0760 C   0  0  0  0  0  0  0  0  0  0  0  0
  1  2  1  0
  2  3  2  0
  2  4  1  0
  4  5  1  0
  5  6  1  0
  6  7  1  0
  7  8  1  0
  8  9  2  0
  8 10  1  0
 11 10  1  6
 11 12  1  0
 12 13  2  0
 13 14  1  0
 14 15  2  0
 15 16  1  0
 15 17  1  0
 12 18  1  0
 17 18  2  0
 11 19  1  0
 19 20  2  0
 20 21  1  0
 21 22  2  0
 22 23  1  0
 19 24  1  0
 23 24  2  0
 24 25  1  0
 25 26  1  0
 25 27  1  0
 25 28  1  0
  7 29  1  0
  4 30  1  0
 29 30  1  0
M  END
