piperidine-amides-16102-covalent
     RDKit          3D

 19 20  0  0  0  0  0  0  0  0999 V2000
    7.0890   -3.3650   19.3440 C   0  0  0  0  0  0  0  0  0  0  0  0
    6.3640   -4.1970   20.3340 C   0  0  0  0  0  0  0  0  0  0  0  0
    5.3230   -4.7200   19.9500 O   0  0  0  0  0  0  0  0  0  0  0  0
    6.8940   -4.4060   21.6140 N   0  0  0  0  0  0  0  0  0  0  0  0
    6.5100   -5.5290   22.4130 C   0  0  0  0  0  0  0  0  0  0  0  0
    5.5700   -5.0340   23.4760 C   0  0  0  0  0  0  0  0  0  0  0  0
    6.2370   -3.9400   24.3230 C   0  0  0  0  0  0  0  0  0  0  0  0
    5.1860   -3.4100   25.2270 C   0  0  0  0  0  0  0  0  0  0  0  0
    4.1520   -2.9800   24.7240 O   0  0  0  0  0  0  0  0  0  0  0  0
    5.3100   -3.3680   26.6350 N   0  0  0  0  0  0  0  0  0  0  0  0
    4.3390   -3.9840   27.5020 C   0  0  0  0  0  0  0  0  0  0  0  0
    5.2760   -4.3860   28.5840 C   0  0  0  0  0  0  0  0  0  0  0  0
    6.5360   -4.1200   28.2240 C   0  0  0  0  0  0  0  0  0  0  0  0
    6.5080   -3.1020   27.2930 C   0  0  2  0  0  0  0  0  0  0  0  0
    6.5960   -1.8380   27.8170 C   0  0  0  0  0  0  0  0  0  0  0  0
    6.6320   -1.7590   29.1730 O   0  0  0  0  0  0  0  0  0  0  0  0
    7.6370   -1.0750   29.7630 C   0  0  0  0  0  0  0  0  0  0  0  0
    6.9060   -2.8620   23.5120 C   0  0  0  0  0  0  0  0  0  0  0  0
    7.6240   -3.3550   22.2860 C   0  0  0  0  0  0  0  0  0  0  0  0
  1  2  1  0
  2  3  2  0
  2  4  1  0
  4  5  1  0
  5  6  1  0
  6  7  1  0
  7  8  1  0
  8  9  2  0
  8 10  1  0
 10 11  1  0
 11 12  1  0
 12 13  1  0
 10 14  1  0
 13 14  1  0
 14 15  1  1
 15 16  1  0
 16 17  1  0
  7 18  1  0
  4 19  1  0
 18 19  1  0
M  END
