piperidine-amides-13359-covalent
     RDKit          3D

 22 25  0  0  0  0  0  0  0  0999 V2000
    7.1020   -3.2840   19.2810 C   0  0  0  0  0  0  0  0  0  0  0  0
    6.3850   -4.0770   20.3080 C   0  0  0  0  0  0  0  0  0  0  0  0
    5.3380   -4.6440   19.9290 O   0  0  0  0  0  0  0  0  0  0  0  0
    6.8960   -4.2070   21.6190 N   0  0  0  0  0  0  0  0  0  0  0  0
    6.5900   -5.3550   22.4140 C   0  0  0  0  0  0  0  0  0  0  0  0
    6.0510   -5.0120   23.7320 C   0  0  0  0  0  0  0  0  0  0  0  0
    6.0520   -3.5580   23.9960 C   0  0  0  0  0  0  0  0  0  0  0  0
    5.5390   -3.2360   25.3560 C   0  0  0  0  0  0  0  0  0  0  0  0
    4.3060   -3.1330   25.4660 O   0  0  0  0  0  0  0  0  0  0  0  0
    6.3610   -3.0400   26.4890 N   0  0  0  0  0  0  0  0  0  0  0  0
    6.2860   -3.9000   27.7040 C   0  0  0  0  0  0  0  0  0  0  0  0
    5.1150   -3.6220   28.5780 C   0  0  1  0  0  0  0  0  0  0  0  0
    3.7790   -3.4920   28.0750 C   0  0  0  0  0  0  0  0  0  0  0  0
    3.5980   -2.8860   29.2740 C   0  0  1  0  0  0  0  0  0  0  0  0
    3.5050   -3.8720   30.1980 C   0  0  0  0  0  0  0  0  0  0  0  0
    4.6880   -4.4990   29.6460 N   0  0  0  0  0  0  0  0  0  0  0  0
    4.9690   -5.8230   29.5860 C   0  0  0  0  0  0  0  0  0  0  0  0
    3.9610   -6.4640   29.5250 C   0  0  0  0  0  0  0  0  0  0  0  0
    4.5290   -6.4200   30.8420 C   0  0  0  0  0  0  0  0  0  0  0  0
    4.9280   -2.4610   29.3550 C   0  0  0  0  0  0  0  0  0  0  0  0
    7.3170   -2.8790   23.6500 C   0  0  0  0  0  0  0  0  0  0  0  0
    7.7610   -3.1900   22.2360 C   0  0  0  0  0  0  0  0  0  0  0  0
  1  2  1  0
  2  3  2  0
  2  4  1  0
  4  5  1  0
  5  6  1  0
  6  7  1  0
  7  8  1  0
  8  9  2  0
  8 10  1  0
 10 11  1  0
 12 11  1  6
 12 13  1  0
 14 13  1  6
 14 15  1  0
 12 16  1  0
 15 16  1  0
 16 17  1  0
 17 18  1  0
 17 19  1  0
 18 19  1  0
 12 20  1  0
 14 20  1  0
  7 21  1  0
  4 22  1  0
 21 22  1  0
M  END
