piperidine-amides-30042-covalent
     RDKit          3D

 27 29  0  0  0  0  0  0  0  0999 V2000
    7.0950   -3.2820   19.2760 C   0  0  0  0  0  0  0  0  0  0  0  0
    6.3710   -4.0730   20.2660 C   0  0  0  0  0  0  0  0  0  0  0  0
    5.3560   -4.6870   19.9400 O   0  0  0  0  0  0  0  0  0  0  0  0
    6.8660   -4.1780   21.6120 N   0  0  0  0  0  0  0  0  0  0  0  0
    6.6620   -5.4070   22.3400 C   0  0  0  0  0  0  0  0  0  0  0  0
    6.1000   -5.1250   23.7080 C   0  0  0  0  0  0  0  0  0  0  0  0
    6.0080   -3.6180   23.8560 C   0  0  0  0  0  0  0  0  0  0  0  0
    5.5050   -3.2010   25.1960 C   0  0  0  0  0  0  0  0  0  0  0  0
    4.2870   -3.0860   25.4160 O   0  0  0  0  0  0  0  0  0  0  0  0
    6.4010   -2.9020   26.2490 N   0  0  0  0  0  0  0  0  0  0  0  0
    6.9710   -1.5840   26.1990 C   0  0  0  0  0  0  0  0  0  0  0  0
    6.0740   -3.4770   27.5340 C   0  0  0  0  0  0  0  0  0  0  0  0
    5.4460   -4.7000   27.5860 C   0  0  1  0  0  0  0  0  0  0  0  0
    5.9490   -5.5680   28.5770 C   0  0  0  0  0  0  0  0  0  0  0  0
    5.0290   -6.3520   29.2960 N   0  0  0  0  0  0  0  0  0  0  0  0
    5.4650   -7.2050   30.3080 C   0  0  0  0  0  0  0  0  0  0  0  0
    4.5930   -7.4730   31.4390 C   0  0  0  0  0  0  0  0  0  0  0  0
    4.8950   -7.3530   32.7870 C   0  0  0  0  0  0  0  0  0  0  0  0
    4.0560   -7.6210   33.8390 C   0  0  0  0  0  0  0  0  0  0  0  0
    2.7760   -8.0540   33.5610 C   0  0  0  0  0  0  0  0  0  0  0  0
    2.3960   -8.2000   32.1570 C   0  0  0  0  0  0  0  0  0  0  0  0
    3.3000   -7.9090   31.1470 C   0  0  0  0  0  0  0  0  0  0  0  0
    3.8320   -6.5680   28.5730 C   0  0  0  0  0  0  0  0  0  0  0  0
    3.5060   -5.8140   27.3490 C   0  0  0  0  0  0  0  0  0  0  0  0
    4.2590   -4.6750   27.1380 O   0  0  0  0  0  0  0  0  0  0  0  0
    7.2860   -2.9050   23.5790 C   0  0  0  0  0  0  0  0  0  0  0  0
    7.7200   -3.1520   22.1550 C   0  0  0  0  0  0  0  0  0  0  0  0
  1  2  1  0
  2  3  2  0
  2  4  1  0
  4  5  1  0
  5  6  1  0
  6  7  1  0
  7  8  1  0
  8  9  2  0
  8 10  1  0
 10 11  1  0
 10 12  1  0
 13 12  1  1
 13 14  1  0
 14 15  1  0
 15 16  1  0
 16 17  1  0
 17 18  2  0
 18 19  1  0
 19 20  2  0
 20 21  1  0
 17 22  1  0
 21 22  2  0
 15 23  1  0
 23 24  1  0
 13 25  1  0
 24 25  1  0
  7 26  1  0
  4 27  1  0
 26 27  1  0
M  END
