piperidine-amides-29827-covalent
     RDKit          3D

 27 30  0  0  0  0  0  0  0  0999 V2000
    7.0990   -3.2920   19.2660 C   0  0  0  0  0  0  0  0  0  0  0  0
    6.3620   -4.0840   20.2460 C   0  0  0  0  0  0  0  0  0  0  0  0
    5.3240   -4.6530   19.9240 O   0  0  0  0  0  0  0  0  0  0  0  0
    6.8790   -4.2430   21.5770 N   0  0  0  0  0  0  0  0  0  0  0  0
    7.7070   -3.2300   22.1690 C   0  0  0  0  0  0  0  0  0  0  0  0
    7.1250   -2.7570   23.4690 C   0  0  0  0  0  0  0  0  0  0  0  0
    6.4500   -3.9130   24.2020 C   0  0  0  0  0  0  0  0  0  0  0  0
    5.5330   -3.3220   25.2120 C   0  0  0  0  0  0  0  0  0  0  0  0
    4.6130   -2.5690   24.8510 O   0  0  0  0  0  0  0  0  0  0  0  0
    5.6440   -3.5740   26.6010 N   0  0  0  0  0  0  0  0  0  0  0  0
    4.3590   -3.6180   27.2200 C   0  0  0  0  0  0  0  0  0  0  0  0
    4.8430   -2.4070   27.8790 C   0  0  0  0  0  0  0  0  0  0  0  0
    4.3160   -1.1890   27.4990 C   0  0  0  0  0  0  0  0  0  0  0  0
    4.3810   -2.5180   29.3500 C   0  0  0  0  0  0  0  0  0  0  0  0
    3.6620   -3.5720   29.9140 N   0  0  0  0  0  0  0  0  0  0  0  0
    3.4900   -3.2060   31.1990 N   0  0  0  0  0  0  0  0  0  0  0  0
    4.0800   -1.9960   31.3700 C   0  0  0  0  0  0  0  0  0  0  0  0
    4.0900   -1.2890   32.6470 C   0  0  0  0  0  0  0  0  0  0  0  0
    4.6260   -0.0920   32.9430 C   0  0  0  0  0  0  0  0  0  0  0  0
    4.3220    0.0430   34.3200 N   0  0  0  0  0  0  0  0  0  0  0  0
    4.6950    1.1920   35.1230 C   0  0  0  0  0  0  0  0  0  0  0  0
    3.6370   -1.0460   34.7800 C   0  0  0  0  0  0  0  0  0  0  0  0
    3.4950   -1.8920   33.6990 N   0  0  0  0  0  0  0  0  0  0  0  0
    4.5990   -1.5800   30.3280 O   0  0  0  0  0  0  0  0  0  0  0  0
    6.1840   -2.5660   27.5640 C   0  0  0  0  0  0  0  0  0  0  0  0
    5.6630   -4.8690   23.3180 C   0  0  0  0  0  0  0  0  0  0  0  0
    6.5270   -5.3800   22.3630 C   0  0  0  0  0  0  0  0  0  0  0  0
  1  2  1  0
  2  3  2  0
  2  4  1  0
  4  5  1  0
  5  6  1  0
  6  7  1  0
  7  8  1  0
  8  9  2  0
  8 10  1  0
 10 11  1  0
 11 12  1  0
 12 13  1  0
 12 14  1  0
 14 15  2  0
 15 16  1  0
 16 17  2  0
 17 18  1  0
 18 19  2  0
 19 20  1  0
 20 21  1  0
 20 22  1  0
 18 23  1  0
 22 23  2  0
 14 24  1  0
 17 24  1  0
 10 25  1  0
 12 25  1  0
  7 26  1  0
  4 27  1  0
 26 27  1  0
M  END
