piperidine-amides-1849-covalent
     RDKit          3D

 18 20  0  0  0  0  0  0  0  0999 V2000
    7.0840   -3.3290   19.2710 C   0  0  0  0  0  0  0  0  0  0  0  0
    6.3820   -4.1560   20.2840 C   0  0  0  0  0  0  0  0  0  0  0  0
    5.3370   -4.7020   19.9390 O   0  0  0  0  0  0  0  0  0  0  0  0
    6.9470   -4.3300   21.5460 N   0  0  0  0  0  0  0  0  0  0  0  0
    7.7510   -3.3010   22.1500 C   0  0  0  0  0  0  0  0  0  0  0  0
    6.9740   -2.7190   23.2740 C   0  0  0  0  0  0  0  0  0  0  0  0
    6.5880   -3.8300   24.2400 C   0  0  0  0  0  0  0  0  0  0  0  0
    5.7940   -3.1930   25.2990 C   0  0  0  0  0  0  0  0  0  0  0  0
    4.6260   -3.5700   25.5330 O   0  0  0  0  0  0  0  0  0  0  0  0
    6.3750   -2.1320   26.0220 N   0  0  0  0  0  0  0  0  0  0  0  0
    6.0620   -1.9980   27.4110 C   0  0  0  0  0  0  0  0  0  0  0  0
    5.7210   -0.7320   27.8050 C   0  0  2  0  0  0  0  0  0  0  0  0
    6.1380    0.5380   27.6410 C   0  0  0  0  0  0  0  0  0  0  0  0
    6.8080    0.8160   28.6610 O   0  0  0  0  0  0  0  0  0  0  0  0
    6.7810   -0.3890   29.3530 C   0  0  0  0  0  0  0  0  0  0  0  0
    7.0840   -1.3040   28.3750 C   0  0  1  0  0  0  0  0  0  0  0  0
    5.7770   -4.9270   23.5580 C   0  0  0  0  0  0  0  0  0  0  0  0
    6.5280   -5.4140   22.3580 C   0  0  0  0  0  0  0  0  0  0  0  0
  1  2  1  0
  2  3  2  0
  2  4  1  0
  4  5  1  0
  5  6  1  0
  6  7  1  0
  7  8  1  0
  8  9  2  0
  8 10  1  0
 10 11  1  0
 11 12  1  0
 12 13  1  6
 13 14  1  0
 14 15  1  0
 11 16  1  0
 12 16  1  0
 16 15  1  1
  7 17  1  0
  4 18  1  0
 17 18  1  0
M  END
