piperidine-amides-13822-covalent
     RDKit          3D

 26 27  0  0  0  0  0  0  0  0999 V2000
    7.1190   -3.2810   19.2440 C   0  0  0  0  0  0  0  0  0  0  0  0
    6.2990   -4.0210   20.2420 C   0  0  0  0  0  0  0  0  0  0  0  0
    5.2430   -4.5610   19.8810 O   0  0  0  0  0  0  0  0  0  0  0  0
    6.7710   -4.1280   21.5630 N   0  0  0  0  0  0  0  0  0  0  0  0
    7.6390   -3.1310   22.1540 C   0  0  0  0  0  0  0  0  0  0  0  0
    7.3420   -3.0390   23.6540 C   0  0  0  0  0  0  0  0  0  0  0  0
    5.9630   -3.5600   23.8840 C   0  0  0  0  0  0  0  0  0  0  0  0
    5.5080   -3.3540   25.2730 C   0  0  0  0  0  0  0  0  0  0  0  0
    4.2850   -3.3080   25.4960 O   0  0  0  0  0  0  0  0  0  0  0  0
    6.4570   -3.2080   26.2710 N   0  0  0  0  0  0  0  0  0  0  0  0
    6.1990   -3.0260   27.6470 C   0  0  0  0  0  0  0  0  0  0  0  0
    6.3030   -3.9750   28.6340 C   0  0  0  0  0  0  0  0  0  0  0  0
    5.3310   -5.0350   28.4030 N   0  0  0  0  0  0  0  0  0  0  0  0
    5.7320   -6.3200   28.0340 C   0  0  0  0  0  0  0  0  0  0  0  0
    4.6930   -7.1040   27.5870 C   0  0  0  0  0  0  0  0  0  0  0  0
    4.0680   -4.8900   28.8560 C   0  0  0  0  0  0  0  0  0  0  0  0
    3.4470   -5.9140   29.8240 C   0  0  0  0  0  0  0  0  0  0  0  0
    4.4380   -6.6340   30.6750 C   0  0  0  0  0  0  0  0  0  0  0  0
    3.9600   -7.5530   31.5600 C   0  0  0  0  0  0  0  0  0  0  0  0
    2.5490   -7.9880   31.8410 C   0  0  0  0  0  0  0  0  0  0  0  0
    2.0650   -9.1910   33.0110 Cl  0  0  0  0  0  0  0  0  0  0  0  0
    1.6280   -7.1610   30.8870 C   0  0  0  0  0  0  0  0  0  0  0  0
   -0.1130   -7.4890   31.0180 Cl  0  0  0  0  0  0  0  0  0  0  0  0
    2.0330   -6.2080   29.9600 C   0  0  0  0  0  0  0  0  0  0  0  0
    5.8090   -5.0160   23.5710 C   0  0  0  0  0  0  0  0  0  0  0  0
    6.5490   -5.3580   22.3020 C   0  0  0  0  0  0  0  0  0  0  0  0
  1  2  1  0
  2  3  2  0
  2  4  1  0
  4  5  1  0
  5  6  1  0
  6  7  1  0
  7  8  1  0
  8  9  2  0
  8 10  1  0
 10 11  1  0
 11 12  1  0
 12 13  1  0
 13 14  1  0
 14 15  1  0
 13 16  1  0
 16 17  1  0
 17 18  2  0
 18 19  1  0
 19 20  2  0
 20 21  1  0
 20 22  1  0
 22 23  1  0
 17 24  1  0
 22 24  2  0
  7 25  1  0
  4 26  1  0
 25 26  1  0
M  END
