piperidine-amides-5470-covalent
     RDKit          3D

 20 20  0  0  0  0  0  0  0  0999 V2000
    7.1560   -3.3020   19.2010 C   0  0  0  0  0  0  0  0  0  0  0  0
    6.3500   -4.0040   20.1970 C   0  0  0  0  0  0  0  0  0  0  0  0
    5.2620   -4.5050   19.8660 O   0  0  0  0  0  0  0  0  0  0  0  0
    6.8260   -4.1670   21.5010 N   0  0  0  0  0  0  0  0  0  0  0  0
    7.7540   -3.2210   22.0670 C   0  0  0  0  0  0  0  0  0  0  0  0
    7.0760   -2.7110   23.2970 C   0  0  0  0  0  0  0  0  0  0  0  0
    6.5960   -3.8280   24.1740 C   0  0  0  0  0  0  0  0  0  0  0  0
    5.9290   -3.2760   25.3660 C   0  0  0  0  0  0  0  0  0  0  0  0
    4.6840   -3.4280   25.5570 O   0  0  0  0  0  0  0  0  0  0  0  0
    6.6560   -2.5350   26.3180 N   0  0  0  0  0  0  0  0  0  0  0  0
    6.1960   -2.4370   27.7100 C   0  0  0  0  0  0  0  0  0  0  0  0
    6.9040   -3.4510   28.4880 C   0  0  0  0  0  0  0  0  0  0  0  0
    6.9960   -4.5420   27.7640 N   0  0  0  0  0  0  0  0  0  0  0  0
    6.9610   -5.8640   28.2420 C   0  0  0  0  0  0  0  0  0  0  0  0
    8.2170   -4.5660   26.9640 C   0  0  0  0  0  0  0  0  0  0  0  0
    8.3940   -3.6660   25.9480 O   0  0  0  0  0  0  0  0  0  0  0  0
    9.2020   -5.4230   27.1880 O   0  0  0  0  0  0  0  0  0  0  0  0
    9.6470   -6.1730   26.1150 C   0  0  0  0  0  0  0  0  0  0  0  0
    5.6670   -4.7360   23.4260 C   0  0  0  0  0  0  0  0  0  0  0  0
    6.2400   -5.2110   22.2740 C   0  0  0  0  0  0  0  0  0  0  0  0
  1  2  1  0
  2  3  2  0
  2  4  1  0
  4  5  1  0
  5  6  1  0
  6  7  1  0
  7  8  1  0
  8  9  2  0
  8 10  1  0
 10 11  1  0
 11 12  1  0
 12 13  1  0
 13 14  1  0
 13 15  1  0
 15 16  2  0
 15 17  1  0
 17 18  1  0
  7 19  1  0
  4 20  1  0
 19 20  1  0
M  END
