piperidine-amides-30473-covalent
     RDKit          3D

 27 29  0  0  0  0  0  0  0  0999 V2000
    7.0760   -3.3490   19.2970 C   0  0  0  0  0  0  0  0  0  0  0  0
    6.4030   -4.1680   20.3020 C   0  0  0  0  0  0  0  0  0  0  0  0
    5.3860   -4.8080   19.9790 O   0  0  0  0  0  0  0  0  0  0  0  0
    6.9260   -4.2750   21.6030 N   0  0  0  0  0  0  0  0  0  0  0  0
    7.7650   -3.2170   22.1500 C   0  0  0  0  0  0  0  0  0  0  0  0
    7.5400   -3.2010   23.6340 C   0  0  0  0  0  0  0  0  0  0  0  0
    6.2000   -3.7750   23.9570 C   0  0  0  0  0  0  0  0  0  0  0  0
    5.6430   -3.3440   25.2540 C   0  0  0  0  0  0  0  0  0  0  0  0
    4.7190   -2.4820   25.2640 O   0  0  0  0  0  0  0  0  0  0  0  0
    6.0380   -3.8170   26.5140 N   0  0  0  0  0  0  0  0  0  0  0  0
    6.3870   -2.7810   27.4980 C   0  0  0  0  0  0  0  0  0  0  0  0
    6.7020   -3.4110   28.7930 C   0  0  0  0  0  0  0  0  0  0  0  0
    5.8130   -4.4820   29.1930 C   0  0  0  0  0  0  0  0  0  0  0  0
    4.4620   -3.9880   29.6880 C   0  0  0  0  0  0  0  0  0  0  0  0
    4.4820   -2.4790   29.9010 C   0  0  0  0  0  0  0  0  0  0  0  0
    3.4550   -1.7020   29.2460 N   0  0  0  0  0  0  0  0  0  0  0  0
    3.9140   -0.4400   29.7530 C   0  0  0  0  0  0  0  0  0  0  0  0
    3.2560    0.7170   29.4150 C   0  0  0  0  0  0  0  0  0  0  0  0
    2.6480    1.4190   30.4610 C   0  0  0  0  0  0  0  0  0  0  0  0
    1.9030    2.4540   29.8920 O   0  0  0  0  0  0  0  0  0  0  0  0
    1.2320    3.3680   30.7360 C   0  0  0  0  0  0  0  0  0  0  0  0
    4.9950   -0.5630   30.5410 N   0  0  0  0  0  0  0  0  0  0  0  0
    5.3360   -1.8380   30.6210 O   0  0  0  0  0  0  0  0  0  0  0  0
    5.7010   -5.4600   28.2770 C   0  0  0  0  0  0  0  0  0  0  0  0
    5.2640   -4.9720   26.9300 C   0  0  0  0  0  0  0  0  0  0  0  0
    6.2440   -5.2450   23.7220 C   0  0  0  0  0  0  0  0  0  0  0  0
    6.6330   -5.4890   22.3130 C   0  0  0  0  0  0  0  0  0  0  0  0
  1  2  1  0
  2  3  2  0
  2  4  1  0
  4  5  1  0
  5  6  1  0
  6  7  1  0
  7  8  1  0
  8  9  2  0
  8 10  1  0
 10 11  1  0
 11 12  1  0
 12 13  1  0
 13 14  1  0
 14 15  1  0
 15 16  2  0
 16 17  1  0
 17 18  1  0
 18 19  1  0
 19 20  1  0
 20 21  1  0
 17 22  2  0
 15 23  1  0
 22 23  1  0
 13 24  1  0
 10 25  1  0
 24 25  1  0
  7 26  1  0
  4 27  1  0
 26 27  1  0
M  END
