piperidine-amides-12175-covalent
     RDKit          3D

 25 27  0  0  0  0  0  0  0  0999 V2000
    7.0770   -3.3220   19.2340 C   0  0  0  0  0  0  0  0  0  0  0  0
    6.3730   -4.1090   20.2400 C   0  0  0  0  0  0  0  0  0  0  0  0
    5.3270   -4.6830   19.9390 O   0  0  0  0  0  0  0  0  0  0  0  0
    6.9310   -4.2640   21.5570 N   0  0  0  0  0  0  0  0  0  0  0  0
    7.6590   -3.1840   22.1620 C   0  0  0  0  0  0  0  0  0  0  0  0
    6.9030   -2.6730   23.3520 C   0  0  0  0  0  0  0  0  0  0  0  0
    6.6010   -3.8380   24.2890 C   0  0  0  0  0  0  0  0  0  0  0  0
    5.7570   -3.3590   25.4180 C   0  0  0  0  0  0  0  0  0  0  0  0
    4.5120   -3.3490   25.3570 O   0  0  0  0  0  0  0  0  0  0  0  0
    6.3830   -2.9060   26.6020 N   0  0  0  0  0  0  0  0  0  0  0  0
    6.8140   -1.5280   26.6680 C   0  0  0  0  0  0  0  0  0  0  0  0
    5.6010   -0.6350   26.7170 C   0  0  0  0  0  0  0  0  0  0  0  0
    5.1780    0.0670   25.6140 C   0  0  0  0  0  0  0  0  0  0  0  0
    4.0540    0.8950   25.6820 C   0  0  0  0  0  0  0  0  0  0  0  0
    3.3300    1.0400   26.8470 C   0  0  0  0  0  0  0  0  0  0  0  0
    2.1940    1.8950   26.8840 N   0  0  0  0  0  0  0  0  0  0  0  0
    0.7860    1.6870   26.8150 C   0  0  0  0  0  0  0  0  0  0  0  0
    0.1510    2.9140   26.9010 C   0  0  0  0  0  0  0  0  0  0  0  0
    1.1410    3.8690   27.0220 N   0  0  0  0  0  0  0  0  0  0  0  0
    2.4730    3.2800   27.0160 C   0  0  0  0  0  0  0  0  0  0  0  0
    3.7960    3.7170   27.1000 C   0  0  0  0  0  0  0  0  0  0  0  0
    3.7660    0.3250   27.9480 C   0  0  0  0  0  0  0  0  0  0  0  0
    4.8810   -0.4950   27.8790 C   0  0  0  0  0  0  0  0  0  0  0  0
    5.8380   -4.9340   23.5840 C   0  0  0  0  0  0  0  0  0  0  0  0
    6.5180   -5.3750   22.3310 C   0  0  0  0  0  0  0  0  0  0  0  0
  1  2  1  0
  2  3  2  0
  2  4  1  0
  4  5  1  0
  5  6  1  0
  6  7  1  0
  7  8  1  0
  8  9  2  0
  8 10  1  0
 10 11  1  0
 11 12  1  0
 12 13  2  0
 13 14  1  0
 14 15  2  0
 15 16  1  0
 16 17  1  0
 17 18  2  0
 18 19  1  0
 16 20  1  0
 19 20  2  0
 20 21  1  0
 15 22  1  0
 12 23  1  0
 22 23  2  0
  7 24  1  0
  4 25  1  0
 24 25  1  0
M  END
