piperidine-amides-10986-covalent
     RDKit          3D

 21 22  0  0  0  0  0  0  0  0999 V2000
    7.0790   -3.3030   19.2740 C   0  0  0  0  0  0  0  0  0  0  0  0
    6.3040   -4.0510   20.2700 C   0  0  0  0  0  0  0  0  0  0  0  0
    5.2670   -4.6260   19.9080 O   0  0  0  0  0  0  0  0  0  0  0  0
    6.7270   -4.1750   21.6060 N   0  0  0  0  0  0  0  0  0  0  0  0
    6.6310   -5.4310   22.3230 C   0  0  0  0  0  0  0  0  0  0  0  0
    6.0460   -5.1110   23.6780 C   0  0  0  0  0  0  0  0  0  0  0  0
    6.0190   -3.6380   23.9460 C   0  0  0  0  0  0  0  0  0  0  0  0
    5.5970   -3.2960   25.3320 C   0  0  0  0  0  0  0  0  0  0  0  0
    4.3880   -2.9950   25.5640 O   0  0  0  0  0  0  0  0  0  0  0  0
    6.4800   -3.2770   26.4300 N   0  0  0  0  0  0  0  0  0  0  0  0
    6.1100   -3.8160   27.7690 C   0  0  0  0  0  0  0  0  0  0  0  0
    5.8840   -5.2940   27.7270 C   0  0  0  0  0  0  0  0  0  0  0  0
    4.8660   -5.8590   26.8240 C   0  0  0  0  0  0  0  0  0  0  0  0
    3.7690   -6.6140   27.5400 C   0  0  0  0  0  0  0  0  0  0  0  0
    3.6700   -6.9190   29.0360 C   0  0  0  0  0  0  0  0  0  0  0  0
    2.5910   -7.6530   29.7280 N   0  0  0  0  0  0  0  0  0  0  0  0
    1.5280   -8.1240   28.8630 C   0  0  0  0  0  0  0  0  0  0  0  0
    1.5370   -7.9020   27.5600 N   0  0  0  0  0  0  0  0  0  0  0  0
    2.5590   -7.1960   26.8420 C   0  0  0  0  0  0  0  0  0  0  0  0
    7.3530   -3.0030   23.6360 C   0  0  0  0  0  0  0  0  0  0  0  0
    7.6230   -3.1690   22.1580 C   0  0  0  0  0  0  0  0  0  0  0  0
  1  2  1  0
  2  3  2  0
  2  4  1  0
  4  5  1  0
  5  6  1  0
  6  7  1  0
  7  8  1  0
  8  9  2  0
  8 10  1  0
 10 11  1  0
 11 12  1  0
 12 13  1  0
 13 14  1  0
 14 15  2  0
 15 16  1  0
 16 17  2  0
 17 18  1  0
 14 19  1  0
 18 19  2  0
  7 20  1  0
  4 21  1  0
 20 21  1  0
M  END
