piperidine-amides-2444-covalent
     RDKit          3D

 26 28  0  0  0  0  0  0  0  0999 V2000
    7.1030   -3.3490   19.2740 C   0  0  0  0  0  0  0  0  0  0  0  0
    6.3850   -4.1480   20.2930 C   0  0  0  0  0  0  0  0  0  0  0  0
    5.3450   -4.7030   19.9420 O   0  0  0  0  0  0  0  0  0  0  0  0
    6.9320   -4.2840   21.5670 N   0  0  0  0  0  0  0  0  0  0  0  0
    7.7470   -3.2480   22.1430 C   0  0  0  0  0  0  0  0  0  0  0  0
    7.0280   -2.6920   23.3220 C   0  0  0  0  0  0  0  0  0  0  0  0
    6.6050   -3.8440   24.2260 C   0  0  0  0  0  0  0  0  0  0  0  0
    5.9680   -3.2190   25.3910 C   0  0  0  0  0  0  0  0  0  0  0  0
    4.7670   -3.4390   25.6230 O   0  0  0  0  0  0  0  0  0  0  0  0
    6.6980   -2.3600   26.2340 N   0  0  0  0  0  0  0  0  0  0  0  0
    5.9650   -1.7100   27.2840 C   0  0  1  0  0  0  0  0  0  0  0  0
    6.8320   -1.4720   28.4930 C   0  0  0  0  0  0  0  0  0  0  0  0
    6.5880   -0.2760   29.0820 C   0  0  0  0  0  0  0  0  0  0  0  0
    5.8580    0.6610   28.3090 N   0  0  0  0  0  0  0  0  0  0  0  0
    4.8600    1.4670   28.9800 C   0  0  1  0  0  0  0  0  0  0  0  0
    5.3650    2.2080   30.0080 C   0  0  0  0  0  0  0  0  0  0  0  0
    4.6140    3.4100   30.5270 C   0  0  0  0  0  0  0  0  0  0  0  0
    5.0640    4.0950   31.6260 O   0  0  0  0  0  0  0  0  0  0  0  0
    3.4400    3.8410   29.8830 N   0  0  0  0  0  0  0  0  0  0  0  0
    2.8720    5.1290   30.1860 C   0  0  0  0  0  0  0  0  0  0  0  0
    3.2280    3.2640   28.6060 C   0  0  0  0  0  0  0  0  0  0  0  0
    2.1410    3.6430   27.8240 O   0  0  0  0  0  0  0  0  0  0  0  0
    4.1590    2.2910   28.1610 N   0  0  0  0  0  0  0  0  0  0  0  0
    5.6780   -0.2510   27.1740 C   0  0  0  0  0  0  0  0  0  0  0  0
    5.7360   -4.8720   23.5500 C   0  0  0  0  0  0  0  0  0  0  0  0
    6.5500   -5.4070   22.3870 C   0  0  0  0  0  0  0  0  0  0  0  0
  1  2  1  0
  2  3  2  0
  2  4  1  0
  4  5  1  0
  5  6  1  0
  6  7  1  0
  7  8  1  0
  8  9  2  0
  8 10  1  0
 11 10  1  6
 11 12  1  0
 12 13  1  0
 13 14  1  0
 15 14  1  6
 15 16  1  0
 16 17  1  0
 17 18  2  0
 17 19  1  0
 19 20  1  0
 19 21  1  0
 21 22  2  0
 15 23  1  0
 21 23  1  0
 11 24  1  0
 14 24  1  0
  7 25  1  0
  4 26  1  0
 25 26  1  0
M  END
