piperidine-amides-17105-covalent
     RDKit          3D

 20 21  0  0  0  0  0  0  0  0999 V2000
    7.1250   -3.2840   19.2200 C   0  0  0  0  0  0  0  0  0  0  0  0
    6.4050   -4.0540   20.2500 C   0  0  0  0  0  0  0  0  0  0  0  0
    5.3230   -4.5880   19.9080 O   0  0  0  0  0  0  0  0  0  0  0  0
    6.9470   -4.2190   21.5510 N   0  0  0  0  0  0  0  0  0  0  0  0
    6.5360   -5.3400   22.3270 C   0  0  0  0  0  0  0  0  0  0  0  0
    5.9550   -4.9550   23.6050 C   0  0  0  0  0  0  0  0  0  0  0  0
    6.0300   -3.5040   23.8560 C   0  0  0  0  0  0  0  0  0  0  0  0
    5.4900   -3.1450   25.2060 C   0  0  0  0  0  0  0  0  0  0  0  0
    5.3630   -4.0320   26.0660 O   0  0  0  0  0  0  0  0  0  0  0  0
    5.0940   -1.8260   25.5280 N   0  0  0  0  0  0  0  0  0  0  0  0
    4.1210   -1.4860   26.4500 C   0  0  0  0  0  0  0  0  0  0  0  0
    5.0610   -0.6280   27.0350 C   0  0  0  0  0  0  0  0  0  0  0  0
    4.7990    0.6080   27.1600 O   0  0  0  0  0  0  0  0  0  0  0  0
    5.4370   -1.2070   28.4120 C   0  0  0  0  0  0  0  0  0  0  0  0
    6.4040   -2.1900   28.2890 C   0  0  0  0  0  0  0  0  0  0  0  0
    7.2970   -1.4010   29.2510 C   0  0  0  0  0  0  0  0  0  0  0  0
    6.0360   -3.5530   28.9020 C   0  0  0  0  0  0  0  0  0  0  0  0
    6.1230   -0.8470   25.9970 C   0  0  0  0  0  0  0  0  0  0  0  0
    7.4080   -2.9470   23.6120 C   0  0  0  0  0  0  0  0  0  0  0  0
    7.7510   -3.1630   22.1470 C   0  0  0  0  0  0  0  0  0  0  0  0
  1  2  1  0
  2  3  2  0
  2  4  1  0
  4  5  1  0
  5  6  1  0
  6  7  1  0
  7  8  1  0
  8  9  2  0
  8 10  1  0
 10 11  1  0
 11 12  1  0
 12 13  1  0
 12 14  1  0
 14 15  1  0
 15 16  1  0
 15 17  1  0
 10 18  1  0
 12 18  1  0
  7 19  1  0
  4 20  1  0
 19 20  1  0
M  END
