piperidine-amides-27162-covalent
     RDKit          3D

 25 26  0  0  0  0  0  0  0  0999 V2000
    7.0270   -3.3780   19.4150 C   0  0  0  0  0  0  0  0  0  0  0  0
    6.4040   -4.2650   20.3990 C   0  0  0  0  0  0  0  0  0  0  0  0
    5.3960   -4.9090   19.9980 O   0  0  0  0  0  0  0  0  0  0  0  0
    6.9430   -4.4110   21.6900 N   0  0  0  0  0  0  0  0  0  0  0  0
    6.7020   -5.6150   22.4700 C   0  0  0  0  0  0  0  0  0  0  0  0
    6.1690   -5.2400   23.8360 C   0  0  0  0  0  0  0  0  0  0  0  0
    6.0600   -3.7520   23.9640 C   0  0  0  0  0  0  0  0  0  0  0  0
    5.4230   -3.2810   25.2210 C   0  0  0  0  0  0  0  0  0  0  0  0
    4.7310   -2.2530   25.1080 O   0  0  0  0  0  0  0  0  0  0  0  0
    5.4780   -3.8260   26.5190 N   0  0  0  0  0  0  0  0  0  0  0  0
    6.4100   -3.2390   27.4140 C   0  0  0  0  0  0  0  0  0  0  0  0
    6.7690   -4.2630   28.4650 C   0  0  0  0  0  0  0  0  0  0  0  0
    5.8070   -4.6280   29.2740 C   0  0  0  0  0  0  0  0  0  0  0  0
    4.6330   -4.7620   28.6170 C   0  0  2  0  0  0  0  0  0  0  0  0
    4.3380   -6.0520   28.1950 C   0  0  0  0  0  0  0  0  0  0  0  0
    3.9530   -6.9730   29.1400 O   0  0  0  0  0  0  0  0  0  0  0  0
    4.4160   -6.4460   26.8590 O   0  0  0  0  0  0  0  0  0  0  0  0
    3.3000   -6.9860   26.2010 C   0  0  0  0  0  0  0  0  0  0  0  0
    3.5360   -7.5760   24.9800 C   0  0  0  0  0  0  0  0  0  0  0  0
    2.6190   -6.4170   24.9430 C   0  0  0  0  0  0  0  0  0  0  0  0
    2.4010   -7.7860   27.0910 C   0  0  0  0  0  0  0  0  0  0  0  0
    4.5100   -3.7960   27.6180 C   0  0  2  0  0  0  0  0  0  0  0  0
    3.1190   -3.6570   27.0160 C   0  0  0  0  0  0  0  0  0  0  0  0
    7.3550   -3.0850   23.7080 C   0  0  0  0  0  0  0  0  0  0  0  0
    7.7140   -3.3260   22.2620 C   0  0  0  0  0  0  0  0  0  0  0  0
  1  2  1  0
  2  3  2  0
  2  4  1  0
  4  5  1  0
  5  6  1  0
  6  7  1  0
  7  8  1  0
  8  9  2  0
  8 10  1  0
 10 11  1  0
 11 12  1  0
 12 13  1  0
 13 14  1  0
 14 15  1  6
 15 16  2  0
 15 17  1  0
 18 17  1  0
 18 19  1  0
 18 20  1  0
 18 21  1  0
 10 22  1  0
 14 22  1  0
 22 23  1  6
  7 24  1  0
  4 25  1  0
 24 25  1  0
M  END
