piperidine-amides-26207-covalent
     RDKit          3D

 24 26  0  0  0  0  0  0  0  0999 V2000
    7.0690   -3.3590   19.3570 C   0  0  0  0  0  0  0  0  0  0  0  0
    6.3970   -4.2250   20.3270 C   0  0  0  0  0  0  0  0  0  0  0  0
    5.3630   -4.8180   19.9780 O   0  0  0  0  0  0  0  0  0  0  0  0
    6.9210   -4.4530   21.6160 N   0  0  0  0  0  0  0  0  0  0  0  0
    6.5210   -5.5890   22.3930 C   0  0  0  0  0  0  0  0  0  0  0  0
    5.6770   -5.0060   23.4990 C   0  0  0  0  0  0  0  0  0  0  0  0
    6.3960   -3.9630   24.3240 C   0  0  0  0  0  0  0  0  0  0  0  0
    5.5190   -3.4220   25.4060 C   0  0  0  0  0  0  0  0  0  0  0  0
    4.7360   -2.4730   25.1190 O   0  0  0  0  0  0  0  0  0  0  0  0
    5.4360   -3.8700   26.7570 N   0  0  0  0  0  0  0  0  0  0  0  0
    4.0830   -4.1010   27.2630 C   0  0  0  0  0  0  0  0  0  0  0  0
    4.1140   -4.2280   28.7270 C   0  0  0  0  0  0  0  0  0  0  0  0
    5.3140   -5.0840   29.5320 S   0  0  0  0  0  0  0  0  0  0  0  0
    6.6540   -4.7090   28.4500 C   0  0  0  0  0  0  0  0  0  0  0  0
    6.3760   -3.4100   27.6760 C   0  0  2  0  0  0  0  0  0  0  0  0
    6.0940   -2.1910   28.5390 C   0  0  0  0  0  0  0  0  0  0  0  0
    5.3690   -2.3070   29.8420 C   0  0  0  0  0  0  0  0  0  0  0  0
    5.1430   -1.1690   30.5810 C   0  0  0  0  0  0  0  0  0  0  0  0
    5.5180    0.1330   30.2640 C   0  0  0  0  0  0  0  0  0  0  0  0
    5.2570    1.3740   31.0950 C   0  0  0  0  0  0  0  0  0  0  0  0
    6.2430    0.3610   28.9930 C   0  0  0  0  0  0  0  0  0  0  0  0
    6.5430   -0.8080   28.1060 C   0  0  0  0  0  0  0  0  0  0  0  0
    6.9230   -2.8480   23.4580 C   0  0  0  0  0  0  0  0  0  0  0  0
    7.6020   -3.3690   22.2490 C   0  0  0  0  0  0  0  0  0  0  0  0
  1  2  1  0
  2  3  2  0
  2  4  1  0
  4  5  1  0
  5  6  1  0
  6  7  1  0
  7  8  1  0
  8  9  2  0
  8 10  1  0
 10 11  1  0
 11 12  1  0
 12 13  1  0
 13 14  1  0
 10 15  1  0
 14 15  1  0
 15 16  1  1
 16 17  2  0
 17 18  1  0
 18 19  2  0
 19 20  1  0
 19 21  1  0
 16 22  1  0
 21 22  2  0
  7 23  1  0
  4 24  1  0
 23 24  1  0
M  END
