piperidine-amides-16157-covalent
     RDKit          3D

 19 20  0  0  0  0  0  0  0  0999 V2000
    7.0610   -3.3430   19.3680 C   0  0  0  0  0  0  0  0  0  0  0  0
    6.3900   -4.2270   20.3570 C   0  0  0  0  0  0  0  0  0  0  0  0
    5.3790   -4.8160   19.9730 O   0  0  0  0  0  0  0  0  0  0  0  0
    6.9260   -4.4030   21.6450 N   0  0  0  0  0  0  0  0  0  0  0  0
    6.5450   -5.5100   22.4700 C   0  0  0  0  0  0  0  0  0  0  0  0
    5.5910   -5.0130   23.5260 C   0  0  0  0  0  0  0  0  0  0  0  0
    6.2020   -3.8610   24.3410 C   0  0  0  0  0  0  0  0  0  0  0  0
    5.1040   -3.3390   25.2150 C   0  0  0  0  0  0  0  0  0  0  0  0
    3.9930   -3.1720   24.7180 O   0  0  0  0  0  0  0  0  0  0  0  0
    5.2800   -3.0220   26.5880 N   0  0  0  0  0  0  0  0  0  0  0  0
    6.5920   -3.1000   27.0380 C   0  0  0  0  0  0  0  0  0  0  0  0
    6.3800   -4.1340   28.1210 C   0  0  2  0  0  0  0  0  0  0  0  0
    6.4720   -5.4140   27.6240 O   0  0  0  0  0  0  0  0  0  0  0  0
    5.1380   -4.0370   28.5910 C   0  0  0  0  0  0  0  0  0  0  0  0
    4.3780   -3.4470   27.6260 C   0  0  0  0  0  0  0  0  0  0  0  0
    3.3550   -2.6250   28.0120 C   0  0  0  0  0  0  0  0  0  0  0  0
    3.0420   -3.8870   27.3100 C   0  0  0  0  0  0  0  0  0  0  0  0
    6.8550   -2.7970   23.4920 C   0  0  0  0  0  0  0  0  0  0  0  0
    7.6230   -3.3220   22.3080 C   0  0  0  0  0  0  0  0  0  0  0  0
  1  2  1  0
  2  3  2  0
  2  4  1  0
  4  5  1  0
  5  6  1  0
  6  7  1  0
  7  8  1  0
  8  9  2  0
  8 10  1  0
 10 11  1  0
 11 12  1  0
 12 13  1  6
 12 14  1  0
 10 15  1  0
 14 15  1  0
 15 16  1  0
 15 17  1  0
  7 18  1  0
  4 19  1  0
 18 19  1  0
M  END
