piperidine-amides-29622-covalent
     RDKit          3D

 27 29  0  0  0  0  0  0  0  0999 V2000
    7.0950   -3.2770   19.2110 C   0  0  0  0  0  0  0  0  0  0  0  0
    6.3280   -4.0710   20.1700 C   0  0  0  0  0  0  0  0  0  0  0  0
    5.2380   -4.5390   19.8650 O   0  0  0  0  0  0  0  0  0  0  0  0
    6.8790   -4.3590   21.4530 N   0  0  0  0  0  0  0  0  0  0  0  0
    7.5630   -3.3120   22.1600 C   0  0  0  0  0  0  0  0  0  0  0  0
    6.7000   -2.8910   23.2960 C   0  0  0  0  0  0  0  0  0  0  0  0
    6.5540   -4.1200   24.1610 C   0  0  0  0  0  0  0  0  0  0  0  0
    5.8230   -3.7620   25.3930 C   0  0  0  0  0  0  0  0  0  0  0  0
    4.5810   -3.6450   25.4470 O   0  0  0  0  0  0  0  0  0  0  0  0
    6.5980   -3.5320   26.5440 N   0  0  0  0  0  0  0  0  0  0  0  0
    6.8370   -2.1630   26.9050 C   0  0  0  0  0  0  0  0  0  0  0  0
    7.5660   -1.5180   25.7570 C   0  0  0  0  0  0  0  0  0  0  0  0
    8.4320   -1.9570   24.7940 N   0  0  0  0  0  0  0  0  0  0  0  0
    8.7270   -0.8540   24.1160 N   0  0  0  0  0  0  0  0  0  0  0  0
    8.0580    0.3120   24.6210 C   0  0  0  0  0  0  0  0  0  0  0  0
    8.3070    1.5350   24.0070 C   0  0  0  0  0  0  0  0  0  0  0  0
    8.8570    1.6100   22.7360 C   0  0  0  0  0  0  0  0  0  0  0  0
    9.1080    2.9130   22.1420 C   0  0  0  0  0  0  0  0  0  0  0  0
    8.8030    4.0500   22.8300 C   0  0  0  0  0  0  0  0  0  0  0  0
    8.2610    3.9530   24.0850 C   0  0  0  0  0  0  0  0  0  0  0  0
    8.0130    2.7150   24.6720 C   0  0  0  0  0  0  0  0  0  0  0  0
    7.3990   -0.1500   25.5630 O   0  0  0  0  0  0  0  0  0  0  0  0
    7.4870   -4.4480   27.2490 C   0  0  0  0  0  0  0  0  0  0  0  0
    6.8760   -5.5330   27.8550 C   0  0  0  0  0  0  0  0  0  0  0  0
    8.5740   -5.0340   26.4120 C   0  0  0  0  0  0  0  0  0  0  0  0
    5.7710   -5.1720   23.4130 C   0  0  0  0  0  0  0  0  0  0  0  0
    6.5470   -5.5780   22.1500 C   0  0  0  0  0  0  0  0  0  0  0  0
  1  2  1  0
  2  3  2  0
  2  4  1  0
  4  5  1  0
  5  6  1  0
  6  7  1  0
  7  8  1  0
  8  9  2  0
  8 10  1  0
 10 11  1  0
 11 12  1  0
 12 13  2  0
 13 14  1  0
 14 15  2  0
 15 16  1  0
 16 17  2  0
 17 18  1  0
 18 19  2  0
 19 20  1  0
 16 21  1  0
 20 21  2  0
 12 22  1  0
 15 22  1  0
 10 23  1  0
 23 24  1  0
 23 25  1  0
  7 26  1  0
  4 27  1  0
 26 27  1  0
M  END
