piperidine-amides-31704-covalent
     RDKit          3D

 26 28  0  0  0  0  0  0  0  0999 V2000
    7.0110   -3.4290   19.4020 C   0  0  0  0  0  0  0  0  0  0  0  0
    6.4010   -4.2580   20.4190 C   0  0  0  0  0  0  0  0  0  0  0  0
    5.4230   -4.9720   20.0240 O   0  0  0  0  0  0  0  0  0  0  0  0
    6.8550   -4.3590   21.7720 N   0  0  0  0  0  0  0  0  0  0  0  0
    6.5330   -5.5690   22.5300 C   0  0  0  0  0  0  0  0  0  0  0  0
    5.4440   -4.9530   23.4920 C   0  0  0  0  0  0  0  0  0  0  0  0
    6.0530   -3.8050   24.2930 C   0  0  0  0  0  0  0  0  0  0  0  0
    4.9170   -3.2450   25.3130 C   0  0  0  0  0  0  0  0  0  0  0  0
    3.9450   -2.9450   24.6500 O   0  0  0  0  0  0  0  0  0  0  0  0
    5.2530   -3.2290   26.5630 N   0  0  0  0  0  0  0  0  0  0  0  0
    5.3080   -2.8670   27.8970 C   0  0  0  0  0  0  0  0  0  0  0  0
    5.1910   -3.4680   29.1310 C   0  0  0  0  0  0  0  0  0  0  0  0
    5.5890   -4.8320   28.9070 N   0  0  0  0  0  0  0  0  0  0  0  0
    4.8200   -6.0200   29.8920 S   0  0  0  0  0  0  0  0  0  0  0  0
    5.8090   -6.5800   30.8320 O   0  0  0  0  0  0  0  0  0  0  0  0
    4.3190   -7.0390   28.9180 O   0  0  0  0  0  0  0  0  0  0  0  0
    3.4470   -5.4100   30.7890 N   0  0  0  0  0  0  0  0  0  0  0  0
    2.3360   -5.3780   30.0320 C   0  0  0  0  0  0  0  0  0  0  0  0
    0.9980   -5.4420   30.6470 C   0  0  0  0  0  0  0  0  0  0  0  0
    1.0030   -5.4030   32.0260 O   0  0  0  0  0  0  0  0  0  0  0  0
    2.2500   -5.0920   32.5980 C   0  0  0  0  0  0  0  0  0  0  0  0
    3.3650   -5.7540   32.0670 C   0  0  0  0  0  0  0  0  0  0  0  0
    5.9800   -5.2930   27.6140 C   0  0  0  0  0  0  0  0  0  0  0  0
    6.3230   -4.0810   26.7350 C   0  0  0  0  0  0  0  0  0  0  0  0
    6.7890   -2.7820   23.4410 C   0  0  0  0  0  0  0  0  0  0  0  0
    7.5870   -3.3360   22.4520 C   0  0  0  0  0  0  0  0  0  0  0  0
  1  2  1  0
  2  3  2  0
  2  4  1  0
  4  5  1  0
  5  6  1  0
  6  7  1  0
  7  8  1  0
  8  9  2  0
  8 10  1  0
 10 11  1  0
 11 12  1  0
 12 13  1  0
 14 13  1  0
 14 15  2  0
 14 16  2  0
 14 17  1  0
 17 18  1  0
 18 19  1  0
 19 20  1  0
 20 21  1  0
 17 22  1  0
 21 22  1  0
 13 23  1  0
 10 24  1  0
 23 24  1  0
  7 25  1  0
  4 26  1  0
 25 26  1  0
M  END
