piperidine-amides-24189-covalent
     RDKit          3D

 23 25  0  0  0  0  0  0  0  0999 V2000
    7.1030   -3.3190   19.3210 C   0  0  0  0  0  0  0  0  0  0  0  0
    6.3860   -4.1510   20.2980 C   0  0  0  0  0  0  0  0  0  0  0  0
    5.3600   -4.7810   19.9620 O   0  0  0  0  0  0  0  0  0  0  0  0
    6.8680   -4.2840   21.6060 N   0  0  0  0  0  0  0  0  0  0  0  0
    6.5250   -5.4680   22.3550 C   0  0  0  0  0  0  0  0  0  0  0  0
    5.6510   -4.9970   23.5220 C   0  0  0  0  0  0  0  0  0  0  0  0
    6.3960   -3.8400   24.1600 C   0  0  0  0  0  0  0  0  0  0  0  0
    5.6940   -3.3630   25.3710 C   0  0  0  0  0  0  0  0  0  0  0  0
    4.5430   -2.8870   25.2620 O   0  0  0  0  0  0  0  0  0  0  0  0
    6.3620   -3.4740   26.6110 N   0  0  0  0  0  0  0  0  0  0  0  0
    7.7740   -3.2900   26.5590 C   0  0  0  0  0  0  0  0  0  0  0  0
    8.3830   -4.6800   26.3580 C   0  0  2  0  0  0  0  0  0  0  0  0
    7.9400   -5.4260   25.3200 C   0  0  0  0  0  0  0  0  0  0  0  0
    8.3530   -5.8990   27.5170 S   0  0  0  0  0  0  0  0  0  0  0  0
    9.4650   -5.6310   28.4490 O   0  0  0  0  0  0  0  0  0  0  0  0
    6.9020   -5.3660   28.3050 C   0  0  0  0  0  0  0  0  0  0  0  0
    5.8560   -4.4230   28.2140 C   0  0  0  0  0  0  0  0  0  0  0  0
    4.9850   -4.4910   29.1380 C   0  0  0  0  0  0  0  0  0  0  0  0
    6.1170   -5.4710   29.2040 C   0  0  0  0  0  0  0  0  0  0  0  0
    5.6300   -4.2770   28.2670 C   0  0  0  0  0  0  0  0  0  0  0  0
    6.8790   -4.5510   27.3710 C   0  0  0  0  0  0  0  0  0  0  0  0
    6.5740   -2.7190   23.1730 C   0  0  0  0  0  0  0  0  0  0  0  0
    7.5400   -3.1820   22.2740 C   0  0  0  0  0  0  0  0  0  0  0  0
  1  2  1  0
  2  3  2  0
  2  4  1  0
  4  5  1  0
  5  6  1  0
  6  7  1  0
  7  8  1  0
  8  9  2  0
  8 10  1  0
 10 11  1  0
 11 12  1  0
 12 13  1  6
 12 14  1  0
 14 15  2  0
 14 16  1  1
 16 17  2  0
 17 18  1  0
 18 19  2  0
 19 20  1  0
 10 21  1  0
 16 21  1  0
 20 21  2  0
  7 22  1  0
  4 23  1  0
 22 23  1  0
M  END
