piperidine-amides-29614-covalent
     RDKit          3D

 27 29  0  0  0  0  0  0  0  0999 V2000
    6.9950   -3.3550   19.3280 C   0  0  0  0  0  0  0  0  0  0  0  0
    6.2960   -4.1950   20.3000 C   0  0  0  0  0  0  0  0  0  0  0  0
    5.3010   -4.8230   19.9600 O   0  0  0  0  0  0  0  0  0  0  0  0
    6.7840   -4.3360   21.6410 N   0  0  0  0  0  0  0  0  0  0  0  0
    7.5670   -3.2860   22.2330 C   0  0  0  0  0  0  0  0  0  0  0  0
    7.3390   -3.2670   23.7110 C   0  0  0  0  0  0  0  0  0  0  0  0
    5.9460   -3.7460   23.9740 C   0  0  0  0  0  0  0  0  0  0  0  0
    5.5390   -3.5050   25.3970 C   0  0  0  0  0  0  0  0  0  0  0  0
    4.3550   -3.6400   25.7450 O   0  0  0  0  0  0  0  0  0  0  0  0
    6.4770   -3.0870   26.3880 N   0  0  0  0  0  0  0  0  0  0  0  0
    6.4580   -3.8150   27.6470 C   0  0  0  0  0  0  0  0  0  0  0  0
    7.0170   -5.2070   27.4860 C   0  0  0  0  0  0  0  0  0  0  0  0
    6.3070   -6.2380   28.0500 C   0  0  0  0  0  0  0  0  0  0  0  0
    6.4600   -1.6080   26.6420 C   0  0  0  0  0  0  0  0  0  0  0  0
    6.1250   -1.0110   27.8900 N   0  0  0  0  0  0  0  0  0  0  0  0
    6.1150    0.3710   28.0310 C   0  0  0  0  0  0  0  0  0  0  0  0
    6.1090    0.9390   29.3840 C   0  0  0  0  0  0  0  0  0  0  0  0
    6.1000    2.2980   29.5540 C   0  0  0  0  0  0  0  0  0  0  0  0
    6.1000    2.9630   28.3650 C   0  0  0  0  0  0  0  0  0  0  0  0
    6.0960    4.2070   27.7360 C   0  0  0  0  0  0  0  0  0  0  0  0
    6.1060    2.4470   27.0050 C   0  0  0  0  0  0  0  0  0  0  0  0
    6.1130    1.0630   26.8420 C   0  0  0  0  0  0  0  0  0  0  0  0
    6.1230    0.4050   25.6260 C   0  0  0  0  0  0  0  0  0  0  0  0
    5.5380    0.9120   24.6300 O   0  0  0  0  0  0  0  0  0  0  0  0
    6.7860   -0.7750   25.6040 N   0  0  0  0  0  0  0  0  0  0  0  0
    5.8490   -5.2230   23.6720 C   0  0  0  0  0  0  0  0  0  0  0  0
    6.6120   -5.5670   22.3740 C   0  0  0  0  0  0  0  0  0  0  0  0
  1  2  1  0
  2  3  2  0
  2  4  1  0
  4  5  1  0
  5  6  1  0
  6  7  1  0
  7  8  1  0
  8  9  2  0
  8 10  1  0
 10 11  1  0
 11 12  1  0
 12 13  1  0
 10 14  1  0
 14 15  2  0
 15 16  1  0
 16 17  2  0
 17 18  1  0
 18 19  2  0
 19 20  1  0
 19 21  1  0
 16 22  1  0
 21 22  2  0
 22 23  1  0
 23 24  2  0
 14 25  1  0
 23 25  1  0
  7 26  1  0
  4 27  1  0
 26 27  1  0
M  END
