piperidine-amides-15119-covalent
     RDKit          3D

 19 20  0  0  0  0  0  0  0  0999 V2000
    7.0450   -3.3100   19.2890 C   0  0  0  0  0  0  0  0  0  0  0  0
    6.3650   -4.1710   20.2530 C   0  0  0  0  0  0  0  0  0  0  0  0
    5.2920   -4.6920   19.9250 O   0  0  0  0  0  0  0  0  0  0  0  0
    6.9610   -4.4450   21.5050 N   0  0  0  0  0  0  0  0  0  0  0  0
    7.4750   -3.3250   22.2230 C   0  0  0  0  0  0  0  0  0  0  0  0
    6.3990   -2.9260   23.1680 C   0  0  0  0  0  0  0  0  0  0  0  0
    6.2970   -4.0850   24.1190 C   0  0  0  0  0  0  0  0  0  0  0  0
    5.5590   -3.6800   25.3530 C   0  0  0  0  0  0  0  0  0  0  0  0
    4.3340   -3.7040   25.2970 O   0  0  0  0  0  0  0  0  0  0  0  0
    6.2980   -3.2960   26.4550 N   0  0  0  0  0  0  0  0  0  0  0  0
    6.5980   -1.9310   26.6470 C   0  0  0  0  0  0  0  0  0  0  0  0
    6.9330   -1.2430   25.4650 C   0  0  0  0  0  0  0  0  0  0  0  0
    6.3840   -0.1680   24.8010 C   0  0  0  0  0  0  0  0  0  0  0  0
    7.2120   -0.0100   23.7190 O   0  0  0  0  0  0  0  0  0  0  0  0
    8.2330   -0.8550   23.6080 C   0  0  0  0  0  0  0  0  0  0  0  0
    9.4440   -0.8530   22.3130 Cl  0  0  0  0  0  0  0  0  0  0  0  0
    8.1270   -1.7200   24.7180 N   0  0  0  0  0  0  0  0  0  0  0  0
    5.6280   -5.2030   23.3710 C   0  0  0  0  0  0  0  0  0  0  0  0
    6.6180   -5.6260   22.2550 C   0  0  0  0  0  0  0  0  0  0  0  0
  1  2  1  0
  2  3  2  0
  2  4  1  0
  4  5  1  0
  5  6  1  0
  6  7  1  0
  7  8  1  0
  8  9  2  0
  8 10  1  0
 10 11  1  0
 11 12  1  0
 12 13  2  0
 13 14  1  0
 14 15  1  0
 15 16  1  0
 12 17  1  0
 15 17  2  0
  7 18  1  0
  4 19  1  0
 18 19  1  0
M  END
