piperidine-amides-34230-covalent
     RDKit          3D

 30 33  0  0  0  0  0  0  0  0999 V2000
    7.0880   -3.2880   19.2710 C   0  0  0  0  0  0  0  0  0  0  0  0
    6.3700   -4.0890   20.2720 C   0  0  0  0  0  0  0  0  0  0  0  0
    5.3350   -4.7100   19.9480 O   0  0  0  0  0  0  0  0  0  0  0  0
    6.8590   -4.2150   21.5820 N   0  0  0  0  0  0  0  0  0  0  0  0
    7.6960   -3.1930   22.1680 C   0  0  0  0  0  0  0  0  0  0  0  0
    6.9340   -2.6530   23.3770 C   0  0  0  0  0  0  0  0  0  0  0  0
    6.5890   -3.8390   24.2510 C   0  0  0  0  0  0  0  0  0  0  0  0
    5.7110   -3.3720   25.3430 C   0  0  0  0  0  0  0  0  0  0  0  0
    4.5290   -3.0850   25.0600 O   0  0  0  0  0  0  0  0  0  0  0  0
    6.2030   -3.2550   26.6630 N   0  0  0  0  0  0  0  0  0  0  0  0
    6.4950   -1.9520   27.1920 C   0  0  0  0  0  0  0  0  0  0  0  0
    5.9840   -4.3560   27.5830 C   0  0  0  0  0  0  0  0  0  0  0  0
    4.6930   -4.3450   27.9410 C   0  0  0  0  0  0  0  0  0  0  0  0
    4.3500   -3.7670   29.1340 C   0  0  0  0  0  0  0  0  0  0  0  0
    3.5660   -4.6360   29.9450 N   0  0  0  0  0  0  0  0  0  0  0  0
    2.2010   -4.7020   29.9840 C   0  0  0  0  0  0  0  0  0  0  0  0
    1.6040   -4.7890   28.8150 C   0  0  0  0  0  0  0  0  0  0  0  0
    0.1640   -4.8870   28.4630 C   0  0  0  0  0  0  0  0  0  0  0  0
   -0.3760   -4.8530   29.9300 C   0  0  0  0  0  0  0  0  0  0  0  0
    0.1430   -4.7580   31.3960 C   0  0  0  0  0  0  0  0  0  0  0  0
    1.5940   -4.6820   31.1920 C   0  0  0  0  0  0  0  0  0  0  0  0
    2.8910   -4.5440   32.3320 S   0  0  0  0  0  0  0  0  0  0  0  0
    4.0080   -5.7990   32.0260 C   0  0  0  0  0  0  0  0  0  0  0  0
    4.6410   -6.7790   32.7470 C   0  0  0  0  0  0  0  0  0  0  0  0
    5.6050   -7.7360   32.1400 C   0  0  0  0  0  0  0  0  0  0  0  0
    5.8600   -7.5830   30.6850 C   0  0  0  0  0  0  0  0  0  0  0  0
    5.1330   -6.4830   29.9350 C   0  0  0  0  0  0  0  0  0  0  0  0
    4.2520   -5.6540   30.6350 C   0  0  0  0  0  0  0  0  0  0  0  0
    5.8700   -4.9410   23.5250 C   0  0  0  0  0  0  0  0  0  0  0  0
    6.5330   -5.3440   22.3850 C   0  0  0  0  0  0  0  0  0  0  0  0
  1  2  1  0
  2  3  2  0
  2  4  1  0
  4  5  1  0
  5  6  1  0
  6  7  1  0
  7  8  1  0
  8  9  2  0
  8 10  1  0
 10 11  1  0
 10 12  1  0
 12 13  1  0
 13 14  1  0
 14 15  1  0
 15 16  1  0
 16 17  2  0
 17 18  1  0
 18 19  2  0
 19 20  1  0
 16 21  1  0
 20 21  2  0
 21 22  1  0
 22 23  1  0
 23 24  2  0
 24 25  1  0
 25 26  2  0
 26 27  1  0
 15 28  1  0
 23 28  1  0
 27 28  2  0
  7 29  1  0
  4 30  1  0
 29 30  1  0
M  END
