piperidine-amides-23340-covalent
     RDKit          3D

 22 24  0  0  0  0  0  0  0  0999 V2000
    7.0730   -3.3430   19.3170 C   0  0  0  0  0  0  0  0  0  0  0  0
    6.4060   -4.1820   20.3230 C   0  0  0  0  0  0  0  0  0  0  0  0
    5.3670   -4.7940   19.9660 O   0  0  0  0  0  0  0  0  0  0  0  0
    6.9540   -4.3320   21.6200 N   0  0  0  0  0  0  0  0  0  0  0  0
    6.6850   -5.5290   22.3480 C   0  0  0  0  0  0  0  0  0  0  0  0
    6.2350   -5.2620   23.7030 C   0  0  0  0  0  0  0  0  0  0  0  0
    6.1260   -3.8190   23.9480 C   0  0  0  0  0  0  0  0  0  0  0  0
    5.4700   -3.4160   25.2340 C   0  0  0  0  0  0  0  0  0  0  0  0
    4.5310   -2.6070   25.1650 O   0  0  0  0  0  0  0  0  0  0  0  0
    5.8160   -3.8690   26.5150 N   0  0  0  0  0  0  0  0  0  0  0  0
    5.5800   -3.0910   27.6350 C   0  0  0  0  0  0  0  0  0  0  0  0
    6.5710   -3.1100   28.6470 C   0  0  0  0  0  0  0  0  0  0  0  0
    7.2390   -4.1890   28.7130 O   0  0  0  0  0  0  0  0  0  0  0  0
    6.5620   -5.3170   28.3210 C   0  0  1  0  0  0  0  0  0  0  0  0
    5.4890   -5.3250   29.2180 C   0  0  0  0  0  0  0  0  0  0  0  0
    4.2680   -6.4570   28.6140 S   0  0  0  0  0  0  0  0  0  0  0  0
    2.8590   -6.0880   28.9250 O   0  0  0  0  0  0  0  0  0  0  0  0
    4.5560   -7.8730   28.9970 O   0  0  0  0  0  0  0  0  0  0  0  0
    4.7020   -6.0150   26.9830 C   0  0  0  0  0  0  0  0  0  0  0  0
    5.9950   -5.2660   26.8600 C   0  0  1  0  0  0  0  0  0  0  0  0
    7.4780   -3.1590   23.7190 C   0  0  0  0  0  0  0  0  0  0  0  0
    7.7570   -3.2840   22.2390 C   0  0  0  0  0  0  0  0  0  0  0  0
  1  2  1  0
  2  3  2  0
  2  4  1  0
  4  5  1  0
  5  6  1  0
  6  7  1  0
  7  8  1  0
  8  9  2  0
  8 10  1  0
 10 11  1  0
 11 12  1  0
 12 13  1  0
 13 14  1  0
 14 15  1  1
 16 15  1  0
 16 17  2  0
 16 18  2  0
 16 19  1  0
 10 20  1  0
 14 20  1  0
 20 19  1  1
  7 21  1  0
  4 22  1  0
 21 22  1  0
M  END
