piperidine-amides-19277-covalent
     RDKit          3D

 22 25  0  0  0  0  0  0  0  0999 V2000
    7.1050   -3.4190   19.3380 C   0  0  0  0  0  0  0  0  0  0  0  0
    6.4610   -4.2330   20.3310 C   0  0  0  0  0  0  0  0  0  0  0  0
    5.3840   -4.8180   19.9920 O   0  0  0  0  0  0  0  0  0  0  0  0
    7.0260   -4.4600   21.6090 N   0  0  0  0  0  0  0  0  0  0  0  0
    6.6480   -5.6790   22.3330 C   0  0  0  0  0  0  0  0  0  0  0  0
    5.5440   -5.0580   23.2600 C   0  0  0  0  0  0  0  0  0  0  0  0
    6.1830   -3.8900   23.9820 C   0  0  0  0  0  0  0  0  0  0  0  0
    5.1130   -3.2170   24.9340 C   0  0  0  0  0  0  0  0  0  0  0  0
    4.2370   -2.6420   24.3260 O   0  0  0  0  0  0  0  0  0  0  0  0
    5.4660   -3.4610   26.0900 N   0  0  0  0  0  0  0  0  0  0  0  0
    6.2120   -3.6550   27.1250 C   0  0  0  0  0  0  0  0  0  0  0  0
    6.3570   -4.7140   27.8850 C   0  0  1  0  0  0  0  0  0  0  0  0
    6.6680   -4.4000   29.1230 C   0  0  1  0  0  0  0  0  0  0  0  0
    6.2590   -3.0290   29.5030 C   0  0  0  0  0  0  0  0  0  0  0  0
    4.7790   -3.2750   29.8370 C   0  0  0  0  0  0  0  0  0  0  0  0
    4.6410   -4.6440   29.5700 C   0  0  2  0  0  0  0  0  0  0  0  0
    5.7510   -5.4870   29.4870 C   0  0  0  0  0  0  0  0  0  0  0  0
    4.9500   -4.8520   28.1010 C   0  0  2  0  0  0  0  0  0  0  0  0
    5.0070   -6.3500   27.6180 C   0  0  0  0  0  0  0  0  0  0  0  0
    4.4430   -3.7980   27.1440 C   0  0  0  0  0  0  0  0  0  0  0  0
    6.9030   -2.8330   23.1520 C   0  0  0  0  0  0  0  0  0  0  0  0
    7.7610   -3.4420   22.3100 C   0  0  0  0  0  0  0  0  0  0  0  0
  1  2  1  0
  2  3  2  0
  2  4  1  0
  4  5  1  0
  5  6  1  0
  6  7  1  0
  7  8  1  0
  8  9  2  0
  8 10  1  0
 10 11  1  0
 12 11  1  6
 12 13  1  0
 13 14  1  1
 14 15  2  0
 16 15  1  1
 13 17  1  0
 16 17  1  0
 12 18  1  0
 16 18  1  0
 18 19  1  6
 10 20  1  0
 18 20  1  0
  7 21  1  0
  4 22  1  0
 21 22  1  0
M  END
