piperidine-amides-7168-covalent
     RDKit          3D

 21 22  0  0  0  0  0  0  0  0999 V2000
    7.0370   -3.2860   19.2450 C   0  0  0  0  0  0  0  0  0  0  0  0
    6.3010   -4.0630   20.2580 C   0  0  0  0  0  0  0  0  0  0  0  0
    5.2300   -4.5970   19.8820 O   0  0  0  0  0  0  0  0  0  0  0  0
    6.7920   -4.2290   21.5500 N   0  0  0  0  0  0  0  0  0  0  0  0
    6.6230   -5.4770   22.2640 C   0  0  0  0  0  0  0  0  0  0  0  0
    5.8640   -5.2100   23.5390 C   0  0  0  0  0  0  0  0  0  0  0  0
    5.9140   -3.7580   23.9190 C   0  0  0  0  0  0  0  0  0  0  0  0
    5.5820   -3.5270   25.3490 C   0  0  0  0  0  0  0  0  0  0  0  0
    4.3950   -3.2490   25.6180 O   0  0  0  0  0  0  0  0  0  0  0  0
    6.5130   -3.5760   26.4150 N   0  0  0  0  0  0  0  0  0  0  0  0
    6.8720   -4.7970   27.1250 C   0  0  0  0  0  0  0  0  0  0  0  0
    5.7840   -5.8470   27.2390 C   0  0  2  0  0  0  0  0  0  0  0  0
    4.6290   -5.9000   26.5050 C   0  0  0  0  0  0  0  0  0  0  0  0
    5.3850   -6.0930   28.6720 C   0  0  0  0  0  0  0  0  0  0  0  0
    4.5130   -5.4230   29.4460 N   0  0  0  0  0  0  0  0  0  0  0  0
    4.3050   -5.8200   30.6910 C   0  0  0  0  0  0  0  0  0  0  0  0
    3.4240   -5.1820   31.5450 C   0  0  0  0  0  0  0  0  0  0  0  0
    4.9960   -6.9130   31.1460 C   0  0  0  0  0  0  0  0  0  0  0  0
    5.9170   -7.3140   29.7510 S   0  0  0  0  0  0  0  0  0  0  0  0
    7.3080   -3.2250   23.6510 C   0  0  0  0  0  0  0  0  0  0  0  0
    7.5540   -3.1660   22.1540 C   0  0  0  0  0  0  0  0  0  0  0  0
  1  2  1  0
  2  3  2  0
  2  4  1  0
  4  5  1  0
  5  6  1  0
  6  7  1  0
  7  8  1  0
  8  9  2  0
  8 10  1  0
 10 11  1  0
 11 12  1  0
 12 13  1  6
 12 14  1  0
 14 15  2  0
 15 16  1  0
 16 17  1  0
 16 18  2  0
 14 19  1  0
 18 19  1  0
  7 20  1  0
  4 21  1  0
 20 21  1  0
M  END
