piperidine-amides-34872-covalent
     RDKit          3D

 33 36  0  0  0  0  0  0  0  0999 V2000
    7.0740   -3.3640   19.4160 C   0  0  0  0  0  0  0  0  0  0  0  0
    6.3780   -4.2170   20.4120 C   0  0  0  0  0  0  0  0  0  0  0  0
    5.4070   -4.8600   19.9940 O   0  0  0  0  0  0  0  0  0  0  0  0
    6.8530   -4.3080   21.7350 N   0  0  0  0  0  0  0  0  0  0  0  0
    6.6260   -5.4930   22.5320 C   0  0  0  0  0  0  0  0  0  0  0  0
    6.0800   -5.1360   23.9030 C   0  0  0  0  0  0  0  0  0  0  0  0
    6.0660   -3.6180   24.1030 C   0  0  0  0  0  0  0  0  0  0  0  0
    5.5520   -3.2790   25.4610 C   0  0  0  0  0  0  0  0  0  0  0  0
    4.3280   -3.1410   25.5690 O   0  0  0  0  0  0  0  0  0  0  0  0
    6.3440   -3.0880   26.6250 N   0  0  0  0  0  0  0  0  0  0  0  0
    6.2240   -4.0700   27.6920 C   0  0  0  0  0  0  0  0  0  0  0  0
    4.9880   -4.9150   27.5470 C   0  0  0  0  0  0  0  0  0  0  0  0
    4.9560   -6.2860   27.3760 C   0  0  0  0  0  0  0  0  0  0  0  0
    3.8070   -6.9940   27.2730 C   0  0  0  0  0  0  0  0  0  0  0  0
    2.6230   -6.3490   27.3370 C   0  0  0  0  0  0  0  0  0  0  0  0
    1.4790   -7.0730   27.2470 O   0  0  0  0  0  0  0  0  0  0  0  0
    1.1260   -7.7440   28.3690 C   0  0  0  0  0  0  0  0  0  0  0  0
    1.7310   -6.9440   29.4820 C   0  0  0  0  0  0  0  0  0  0  0  0
    3.0430   -7.6260   29.8320 C   0  0  0  0  0  0  0  0  0  0  0  0
    3.8270   -6.9830   30.9340 C   0  0  0  0  0  0  0  0  0  0  0  0
    3.2850   -5.7630   31.5850 C   0  0  0  0  0  0  0  0  0  0  0  0
    1.9680   -5.1680   31.1560 C   0  0  0  0  0  0  0  0  0  0  0  0
    1.1890   -5.8050   30.0660 C   0  0  0  0  0  0  0  0  0  0  0  0
    2.5590   -4.8910   27.5090 C   0  0  0  0  0  0  0  0  0  0  0  0
    3.7010   -4.1340   27.6190 C   0  0  0  0  0  0  0  0  0  0  0  0
    6.3740   -1.7570   27.1750 C   0  0  0  0  0  0  0  0  0  0  0  0
    6.9850   -1.5130   28.5640 C   0  0  0  0  0  0  0  0  0  0  0  0
    7.0140   -0.1460   29.1930 C   0  0  0  0  0  0  0  0  0  0  0  0
    6.5140    0.9400   28.5810 C   0  0  0  0  0  0  0  0  0  0  0  0
    5.9110    0.7110   27.1950 C   0  0  0  0  0  0  0  0  0  0  0  0
    5.8480   -0.6250   26.5100 C   0  0  0  0  0  0  0  0  0  0  0  0
    7.3480   -2.9840   23.7220 C   0  0  0  0  0  0  0  0  0  0  0  0
    7.6690   -3.2240   22.2700 C   0  0  0  0  0  0  0  0  0  0  0  0
  1  2  1  0
  2  3  2  0
  2  4  1  0
  4  5  1  0
  5  6  1  0
  6  7  1  0
  7  8  1  0
  8  9  2  0
  8 10  1  0
 10 11  1  0
 11 12  1  0
 12 13  2  0
 13 14  1  0
 14 15  2  0
 15 16  1  0
 16 17  1  0
 17 18  1  0
 18 19  2  0
 19 20  1  0
 20 21  2  0
 21 22  1  0
 18 23  1  0
 22 23  2  0
 15 24  1  0
 12 25  1  0
 24 25  2  0
 10 26  1  0
 26 27  2  0
 27 28  1  0
 28 29  2  0
 29 30  1  0
 26 31  1  0
 30 31  2  0
  7 32  1  0
  4 33  1  0
 32 33  1  0
M  END
