piperidine-amides-5018-covalent
     RDKit          3D

 23 24  0  0  0  0  0  0  0  0999 V2000
    7.0750   -3.3070   19.2240 C   0  0  0  0  0  0  0  0  0  0  0  0
    6.3600   -4.1000   20.2520 C   0  0  0  0  0  0  0  0  0  0  0  0
    5.2790   -4.6060   19.8990 O   0  0  0  0  0  0  0  0  0  0  0  0
    6.8940   -4.3210   21.5260 N   0  0  0  0  0  0  0  0  0  0  0  0
    7.6260   -3.2840   22.1820 C   0  0  0  0  0  0  0  0  0  0  0  0
    7.2690   -3.0260   23.5800 C   0  0  0  0  0  0  0  0  0  0  0  0
    6.4090   -4.0360   24.2420 C   0  0  0  0  0  0  0  0  0  0  0  0
    5.6870   -3.4150   25.3820 C   0  0  0  0  0  0  0  0  0  0  0  0
    4.4800   -3.1610   25.2300 O   0  0  0  0  0  0  0  0  0  0  0  0
    6.3240   -3.1370   26.6140 N   0  0  0  0  0  0  0  0  0  0  0  0
    6.3500   -1.7840   27.2450 C   0  0  0  0  0  0  0  0  0  0  0  0
    7.0630   -1.6670   28.5220 C   0  0  0  0  0  0  0  0  0  0  0  0
    7.1230   -0.4020   29.2010 C   0  0  0  0  0  0  0  0  0  0  0  0
    6.4920    0.6660   28.5970 C   0  0  0  0  0  0  0  0  0  0  0  0
    5.8070    0.5860   27.3810 C   0  0  0  0  0  0  0  0  0  0  0  0
    5.7140   -0.6040   26.6840 C   0  0  0  0  0  0  0  0  0  0  0  0
    5.0140   -0.6810   25.4640 N   0  0  0  0  0  0  0  0  0  0  0  0
    3.6300   -1.0140   25.5640 C   0  0  0  0  0  0  0  0  0  0  0  0
    5.4540    0.4500   24.5840 C   0  0  0  0  0  0  0  0  0  0  0  0
    5.9430    0.0970   23.3230 C   0  0  0  0  0  0  0  0  0  0  0  0
    4.5150    1.4000   24.2230 C   0  0  0  0  0  0  0  0  0  0  0  0
    5.4730   -4.7450   23.3370 C   0  0  0  0  0  0  0  0  0  0  0  0
    6.3710   -5.3940   22.3320 C   0  0  0  0  0  0  0  0  0  0  0  0
  1  2  1  0
  2  3  2  0
  2  4  1  0
  4  5  1  0
  5  6  1  0
  6  7  1  0
  7  8  1  0
  8  9  2  0
  8 10  1  0
 10 11  1  0
 11 12  2  0
 12 13  1  0
 13 14  2  0
 14 15  1  0
 11 16  1  0
 15 16  2  0
 16 17  1  0
 17 18  1  0
 17 19  1  0
 19 20  1  0
 19 21  1  0
  7 22  1  0
  4 23  1  0
 22 23  1  0
M  END
