piperidine-amides-35684-covalent
     RDKit          3D

 42 46  0  0  0  0  0  0  0  0999 V2000
    6.9900   -3.3930   19.4860 C   0  0  0  0  0  0  0  0  0  0  0  0
    6.1360   -4.1890   20.3740 C   0  0  0  0  0  0  0  0  0  0  0  0
    5.1400   -4.7020   19.9140 O   0  0  0  0  0  0  0  0  0  0  0  0
    6.5560   -4.3410   21.6830 N   0  0  0  0  0  0  0  0  0  0  0  0
    6.1390   -5.4670   22.4870 C   0  0  0  0  0  0  0  0  0  0  0  0
    5.2570   -5.0020   23.6320 C   0  0  0  0  0  0  0  0  0  0  0  0
    5.9200   -3.8540   24.4080 C   0  0  0  0  0  0  0  0  0  0  0  0
    5.0960   -3.4380   25.5690 C   0  0  0  0  0  0  0  0  0  0  0  0
    3.8760   -3.3180   25.4270 O   0  0  0  0  0  0  0  0  0  0  0  0
    5.6900   -3.1780   26.8230 N   0  0  0  0  0  0  0  0  0  0  0  0
    6.8070   -4.0480   27.1520 C   0  0  0  0  0  0  0  0  0  0  0  0
    7.7680   -3.4470   26.2150 C   0  0  0  0  0  0  0  0  0  0  0  0
    9.0590   -3.7140   25.9050 C   0  0  0  0  0  0  0  0  0  0  0  0
    9.6090   -2.8960   24.9690 C   0  0  0  0  0  0  0  0  0  0  0  0
    8.8020   -1.9150   24.4560 C   0  0  0  0  0  0  0  0  0  0  0  0
    9.0460   -0.8420   23.4470 C   0  0  0  0  0  0  0  0  0  0  0  0
    8.3360   -0.7780   22.2700 O   0  0  0  0  0  0  0  0  0  0  0  0
    9.9900   -0.0100   23.9120 N   0  0  0  0  0  0  0  0  0  0  0  0
   10.4530    0.8300   22.9950 C   0  0  1  0  0  0  0  0  0  0  0  0
   11.9290    1.2150   22.9620 C   0  0  0  0  0  0  0  0  0  0  0  0
   12.7800    0.0480   23.4040 C   0  0  0  0  0  0  0  0  0  0  0  0
   12.3470   -0.7230   24.6140 C   0  0  0  0  0  0  0  0  0  0  0  0
   12.9820   -2.0680   24.6390 C   0  0  0  0  0  0  0  0  0  0  0  0
   13.3000   -2.3120   23.2370 C   0  0  0  0  0  0  0  0  0  0  0  0
   12.9770   -1.1040   22.3520 C   0  0  0  0  0  0  0  0  0  0  0  0
    9.8830    0.5120   21.8020 C   0  0  0  0  0  0  0  0  0  0  0  0
    9.1320    1.5340   21.1420 O   0  0  0  0  0  0  0  0  0  0  0  0
   10.0280   -0.7250   21.3000 N   0  0  0  0  0  0  0  0  0  0  0  0
   11.1500   -1.3230   21.9590 C   0  0  0  0  0  0  0  0  0  0  0  0
   10.7250   -2.3440   22.7540 C   0  0  0  0  0  0  0  0  0  0  0  0
   11.7040   -2.6630   21.5670 C   0  0  0  0  0  0  0  0  0  0  0  0
    7.3680   -2.1450   25.2500 S   0  0  0  0  0  0  0  0  0  0  0  0
    5.8060   -1.7300   27.2470 C   0  0  0  0  0  0  0  0  0  0  0  0
    5.7600   -0.5840   26.2360 C   0  0  0  0  0  0  0  0  0  0  0  0
    5.8740    0.8340   26.6390 C   0  0  0  0  0  0  0  0  0  0  0  0
    5.8250    2.1700   25.4730 Cl  0  0  0  0  0  0  0  0  0  0  0  0
    6.0360    1.0250   28.1220 C   0  0  0  0  0  0  0  0  0  0  0  0
    6.0610   -0.0130   28.9470 N   0  0  0  0  0  0  0  0  0  0  0  0
    5.9530   -1.3320   28.5550 C   0  0  0  0  0  0  0  0  0  0  0  0
    5.9910   -2.3910   29.5970 C   0  0  0  0  0  0  0  0  0  0  0  0
    6.0860   -2.7760   23.3820 C   0  0  0  0  0  0  0  0  0  0  0  0
    7.0960   -3.2900   22.4210 C   0  0  0  0  0  0  0  0  0  0  0  0
  1  2  1  0
  2  3  2  0
  2  4  1  0
  4  5  1  0
  5  6  1  0
  6  7  1  0
  7  8  1  0
  8  9  2  0
  8 10  1  0
 10 11  1  0
 11 12  1  0
 12 13  2  0
 13 14  1  0
 14 15  2  0
 15 16  1  0
 16 17  2  0
 16 18  1  0
 18 19  1  0
 19 20  1  6
 20 21  1  0
 21 22  1  0
 22 23  1  0
 23 24  1  0
 21 25  1  0
 24 25  1  0
 19 26  1  0
 26 27  2  0
 26 28  1  0
 28 29  1  0
 29 30  1  0
 29 31  1  0
 30 31  1  0
 12 32  1  0
 15 32  1  0
 10 33  1  0
 33 34  2  0
 34 35  1  0
 35 36  1  0
 35 37  2  0
 37 38  1  0
 33 39  1  0
 38 39  2  0
 39 40  1  0
  7 41  1  0
  4 42  1  0
 41 42  1  0
M  END
