piperidine-amides-10346-covalent
     RDKit          3D

 24 25  0  0  0  0  0  0  0  0999 V2000
    7.0390   -3.3020   19.3080 C   0  0  0  0  0  0  0  0  0  0  0  0
    6.3530   -4.0950   20.3350 C   0  0  0  0  0  0  0  0  0  0  0  0
    5.3300   -4.7240   19.9490 O   0  0  0  0  0  0  0  0  0  0  0  0
    6.8360   -4.1760   21.6500 N   0  0  0  0  0  0  0  0  0  0  0  0
    6.6810   -5.3970   22.4070 C   0  0  0  0  0  0  0  0  0  0  0  0
    6.0290   -5.0470   23.7120 C   0  0  0  0  0  0  0  0  0  0  0  0
    6.0220   -3.5530   23.8960 C   0  0  0  0  0  0  0  0  0  0  0  0
    5.6340   -3.1720   25.2810 C   0  0  0  0  0  0  0  0  0  0  0  0
    4.6290   -2.4410   25.4050 O   0  0  0  0  0  0  0  0  0  0  0  0
    6.2960   -3.5720   26.4600 N   0  0  0  0  0  0  0  0  0  0  0  0
    6.0320   -4.8660   27.0530 C   0  0  2  0  0  0  0  0  0  0  0  0
    4.5950   -5.2250   26.8750 C   0  0  0  0  0  0  0  0  0  0  0  0
    6.3810   -5.0120   28.4720 C   0  0  0  0  0  0  0  0  0  0  0  0
    6.3930   -6.2760   29.0050 C   0  0  0  0  0  0  0  0  0  0  0  0
    5.2310   -6.8070   29.5520 C   0  0  0  0  0  0  0  0  0  0  0  0
    4.1820   -7.2670   28.7900 C   0  0  0  0  0  0  0  0  0  0  0  0
    3.0040   -7.7990   29.2790 C   0  0  0  0  0  0  0  0  0  0  0  0
    2.6440   -7.9760   30.7440 C   0  0  0  0  0  0  0  0  0  0  0  0
    1.4820   -8.4950   31.2110 F   0  0  0  0  0  0  0  0  0  0  0  0
    3.8350   -7.4580   31.5560 C   0  0  0  0  0  0  0  0  0  0  0  0
    3.6000   -7.5820   32.9280 F   0  0  0  0  0  0  0  0  0  0  0  0
    5.0770   -6.8980   30.9090 C   0  0  0  0  0  0  0  0  0  0  0  0
    7.3730   -2.9850   23.5650 C   0  0  0  0  0  0  0  0  0  0  0  0
    7.7130   -3.1330   22.2320 C   0  0  0  0  0  0  0  0  0  0  0  0
  1  2  1  0
  2  3  2  0
  2  4  1  0
  4  5  1  0
  5  6  1  0
  6  7  1  0
  7  8  1  0
  8  9  2  0
  8 10  1  0
 10 11  1  0
 11 12  1  1
 11 13  1  0
 13 14  1  0
 14 15  1  0
 15 16  2  0
 16 17  1  0
 17 18  2  0
 18 19  1  0
 18 20  1  0
 20 21  1  0
 15 22  1  0
 20 22  2  0
  7 23  1  0
  4 24  1  0
 23 24  1  0
M  END
