piperidine-amides-19196-covalent
     RDKit          3D

 22 24  0  0  0  0  0  0  0  0999 V2000
    7.0700   -3.4450   19.4310 C   0  0  0  0  0  0  0  0  0  0  0  0
    6.4050   -4.2560   20.4180 C   0  0  0  0  0  0  0  0  0  0  0  0
    5.3850   -4.9030   20.0090 O   0  0  0  0  0  0  0  0  0  0  0  0
    6.8570   -4.4250   21.7590 N   0  0  0  0  0  0  0  0  0  0  0  0
    6.4620   -5.6460   22.4680 C   0  0  0  0  0  0  0  0  0  0  0  0
    5.4100   -5.0020   23.4490 C   0  0  0  0  0  0  0  0  0  0  0  0
    6.1380   -3.9320   24.2470 C   0  0  0  0  0  0  0  0  0  0  0  0
    5.1810   -3.4050   25.4390 C   0  0  0  0  0  0  0  0  0  0  0  0
    4.1910   -2.9150   24.9350 O   0  0  0  0  0  0  0  0  0  0  0  0
    5.6680   -3.6130   26.6140 N   0  0  0  0  0  0  0  0  0  0  0  0
    6.4900   -3.8580   27.6180 C   0  0  0  0  0  0  0  0  0  0  0  0
    6.9130   -4.9670   28.2790 C   0  0  0  0  0  0  0  0  0  0  0  0
    5.8550   -5.4710   29.0000 C   0  0  0  0  0  0  0  0  0  0  0  0
    5.6100   -6.4540   29.8430 N   0  0  0  0  0  0  0  0  0  0  0  0
    4.2540   -6.3860   30.1940 C   0  0  0  0  0  0  0  0  0  0  0  0
    3.8450   -7.4920   31.1780 C   0  0  0  0  0  0  0  0  0  0  0  0
    3.1730   -5.5990   29.9010 N   0  0  0  0  0  0  0  0  0  0  0  0
    3.4350   -4.6050   29.0410 C   0  0  0  0  0  0  0  0  0  0  0  0
    4.7510   -4.5680   28.6160 C   0  0  0  0  0  0  0  0  0  0  0  0
    4.7070   -3.3450   27.6550 C   0  0  0  0  0  0  0  0  0  0  0  0
    6.7940   -2.8860   23.3710 C   0  0  0  0  0  0  0  0  0  0  0  0
    7.6600   -3.4660   22.4650 C   0  0  0  0  0  0  0  0  0  0  0  0
  1  2  1  0
  2  3  2  0
  2  4  1  0
  4  5  1  0
  5  6  1  0
  6  7  1  0
  7  8  1  0
  8  9  2  0
  8 10  1  0
 10 11  1  0
 11 12  1  0
 12 13  1  0
 13 14  2  0
 14 15  1  0
 15 16  1  0
 15 17  2  0
 17 18  1  0
 13 19  1  0
 18 19  2  0
 10 20  1  0
 19 20  1  0
  7 21  1  0
  4 22  1  0
 21 22  1  0
M  END
