piperidine-amides-8843-covalent
     RDKit          3D

 22 24  0  0  0  0  0  0  0  0999 V2000
    7.0550   -3.3460   19.3410 C   0  0  0  0  0  0  0  0  0  0  0  0
    6.4150   -4.1990   20.3420 C   0  0  0  0  0  0  0  0  0  0  0  0
    5.4110   -4.8480   19.9880 O   0  0  0  0  0  0  0  0  0  0  0  0
    6.9600   -4.3080   21.6530 N   0  0  0  0  0  0  0  0  0  0  0  0
    7.7620   -3.2430   22.1860 C   0  0  0  0  0  0  0  0  0  0  0  0
    7.0590   -2.6360   23.3560 C   0  0  0  0  0  0  0  0  0  0  0  0
    6.6160   -3.7750   24.2370 C   0  0  0  0  0  0  0  0  0  0  0  0
    5.7670   -3.2460   25.3720 C   0  0  0  0  0  0  0  0  0  0  0  0
    4.5680   -3.1570   25.1280 O   0  0  0  0  0  0  0  0  0  0  0  0
    6.3520   -2.9010   26.6030 N   0  0  0  0  0  0  0  0  0  0  0  0
    6.7410   -1.5560   26.9520 C   0  0  2  0  0  0  0  0  0  0  0  0
    7.2500   -1.4430   28.2630 C   0  0  0  0  0  0  0  0  0  0  0  0
    6.6980   -0.5520   29.1380 C   0  0  0  0  0  0  0  0  0  0  0  0
    6.4080    0.7420   28.7540 C   0  0  0  0  0  0  0  0  0  0  0  0
    5.4470    0.5130   27.6460 C   0  0  0  0  0  0  0  0  0  0  0  0
    4.2770    1.5120   27.4690 C   0  0  0  0  0  0  0  0  0  0  0  0
    3.3270    1.2550   26.3580 C   0  0  0  0  0  0  0  0  0  0  0  0
    3.6300    0.0420   25.5330 C   0  0  0  0  0  0  0  0  0  0  0  0
    4.6600   -0.7780   25.7370 N   0  0  0  0  0  0  0  0  0  0  0  0
    5.6110   -0.6050   26.7710 C   0  0  0  0  0  0  0  0  0  0  0  0
    5.7380   -4.7350   23.4480 C   0  0  0  0  0  0  0  0  0  0  0  0
    6.5690   -5.3690   22.5440 C   0  0  0  0  0  0  0  0  0  0  0  0
  1  2  1  0
  2  3  2  0
  2  4  1  0
  4  5  1  0
  5  6  1  0
  6  7  1  0
  7  8  1  0
  8  9  2  0
  8 10  1  0
 11 10  1  1
 11 12  1  0
 12 13  1  0
 13 14  1  0
 14 15  1  0
 15 16  2  0
 16 17  1  0
 17 18  2  0
 18 19  1  0
 11 20  1  0
 15 20  1  0
 19 20  2  0
  7 21  1  0
  4 22  1  0
 21 22  1  0
M  END
