piperidine-amides-684-covalent
     RDKit          3D

 26 28  0  0  0  0  0  0  0  0999 V2000
    7.0510   -3.3140   19.1850 C   0  0  0  0  0  0  0  0  0  0  0  0
    6.2980   -3.9970   20.2150 C   0  0  0  0  0  0  0  0  0  0  0  0
    5.2200   -4.5620   19.8740 O   0  0  0  0  0  0  0  0  0  0  0  0
    6.7210   -4.1090   21.5460 N   0  0  0  0  0  0  0  0  0  0  0  0
    6.5750   -5.4300   22.2050 C   0  0  0  0  0  0  0  0  0  0  0  0
    5.6370   -5.0750   23.4260 C   0  0  0  0  0  0  0  0  0  0  0  0
    5.7380   -3.5800   23.6350 C   0  0  0  0  0  0  0  0  0  0  0  0
    5.0010   -3.0970   24.9600 C   0  0  0  0  0  0  0  0  0  0  0  0
    3.8870   -2.6510   24.7420 O   0  0  0  0  0  0  0  0  0  0  0  0
    5.7950   -3.3130   25.9030 N   0  0  0  0  0  0  0  0  0  0  0  0
    6.7200   -3.5570   26.8210 C   0  0  2  0  0  0  0  0  0  0  0  0
    8.0270   -3.7730   26.6940 C   0  0  0  0  0  0  0  0  0  0  0  0
    8.6070   -4.6170   27.6240 C   0  0  0  0  0  0  0  0  0  0  0  0
   10.0250   -4.9840   27.6600 C   0  0  0  0  0  0  0  0  0  0  0  0
   10.8240   -4.2830   26.4910 C   0  0  0  0  0  0  0  0  0  0  0  0
   12.1850   -4.4280   26.2950 F   0  0  0  0  0  0  0  0  0  0  0  0
   10.0690   -3.4770   25.6620 C   0  0  0  0  0  0  0  0  0  0  0  0
    8.7440   -3.2320   25.7540 C   0  0  0  0  0  0  0  0  0  0  0  0
    6.2590   -4.6770   27.6680 C   0  0  0  0  0  0  0  0  0  0  0  0
    6.3490   -5.7580   27.2600 N   0  0  0  0  0  0  0  0  0  0  0  0
    5.8650   -6.4970   28.2520 O   0  0  0  0  0  0  0  0  0  0  0  0
    5.4830   -5.6470   29.3000 C   0  0  0  0  0  0  0  0  0  0  0  0
    4.9580   -6.2210   30.4280 C   0  0  0  0  0  0  0  0  0  0  0  0
    5.7340   -4.4220   28.9270 N   0  0  0  0  0  0  0  0  0  0  0  0
    7.1320   -3.0010   23.4490 C   0  0  0  0  0  0  0  0  0  0  0  0
    7.5170   -3.0840   22.1660 C   0  0  0  0  0  0  0  0  0  0  0  0
  1  2  1  0
  2  3  2  0
  2  4  1  0
  4  5  1  0
  5  6  1  0
  6  7  1  0
  7  8  1  0
  8  9  2  0
  8 10  1  0
 11 10  1  6
 11 12  1  0
 12 13  2  0
 13 14  1  0
 14 15  2  0
 15 16  1  0
 15 17  1  0
 12 18  1  0
 17 18  2  0
 11 19  1  0
 19 20  2  0
 20 21  1  0
 21 22  1  0
 22 23  1  0
 19 24  1  0
 22 24  2  0
  7 25  1  0
  4 26  1  0
 25 26  1  0
M  END
