piperidine-amides-16169-covalent
     RDKit          3D

 19 20  0  0  0  0  0  0  0  0999 V2000
    7.0210   -3.3470   19.3060 C   0  0  0  0  0  0  0  0  0  0  0  0
    6.3730   -4.2010   20.3360 C   0  0  0  0  0  0  0  0  0  0  0  0
    5.3840   -4.8390   19.9810 O   0  0  0  0  0  0  0  0  0  0  0  0
    6.9140   -4.2900   21.6280 N   0  0  0  0  0  0  0  0  0  0  0  0
    6.6900   -5.4230   22.4790 C   0  0  0  0  0  0  0  0  0  0  0  0
    5.9460   -4.9870   23.7190 C   0  0  0  0  0  0  0  0  0  0  0  0
    6.6150   -3.7750   24.3990 C   0  0  0  0  0  0  0  0  0  0  0  0
    5.7110   -3.4280   25.5500 C   0  0  0  0  0  0  0  0  0  0  0  0
    4.5150   -3.2850   25.2690 O   0  0  0  0  0  0  0  0  0  0  0  0
    6.0670   -3.2280   26.9360 N   0  0  0  0  0  0  0  0  0  0  0  0
    4.8920   -2.9380   27.7810 C   0  0  0  0  0  0  0  0  0  0  0  0
    4.5780   -4.2620   28.4620 C   0  0  0  0  0  0  0  0  0  0  0  0
    5.5940   -5.0900   28.3090 C   0  0  1  0  0  0  0  0  0  0  0  0
    6.0130   -5.9280   29.2760 C   0  0  0  0  0  0  0  0  0  0  0  0
    5.3160   -5.8750   27.0420 C   0  0  0  0  0  0  0  0  0  0  0  0
    6.4820   -6.2900   26.5440 O   0  0  0  0  0  0  0  0  0  0  0  0
    6.5340   -3.9870   28.1070 C   0  0  0  0  0  0  0  0  0  0  0  0
    6.8560   -2.6630   23.4350 C   0  0  0  0  0  0  0  0  0  0  0  0
    7.5820   -3.1430   22.2090 C   0  0  0  0  0  0  0  0  0  0  0  0
  1  2  1  0
  2  3  2  0
  2  4  1  0
  4  5  1  0
  5  6  1  0
  6  7  1  0
  7  8  1  0
  8  9  2  0
  8 10  1  0
 10 11  1  0
 11 12  1  0
 12 13  1  0
 13 14  1  1
 13 15  1  0
 15 16  1  0
 10 17  1  0
 13 17  1  0
  7 18  1  0
  4 19  1  0
 18 19  1  0
M  END
