piperidine-amides-25649-covalent
     RDKit          3D

 25 27  0  0  0  0  0  0  0  0999 V2000
    7.0170   -3.3960   19.4400 C   0  0  0  0  0  0  0  0  0  0  0  0
    6.3570   -4.2880   20.4320 C   0  0  0  0  0  0  0  0  0  0  0  0
    5.4220   -4.9690   20.0080 O   0  0  0  0  0  0  0  0  0  0  0  0
    6.8200   -4.3550   21.7650 N   0  0  0  0  0  0  0  0  0  0  0  0
    6.6120   -5.5240   22.5980 C   0  0  0  0  0  0  0  0  0  0  0  0
    6.0450   -5.1290   23.9540 C   0  0  0  0  0  0  0  0  0  0  0  0
    6.0060   -3.6050   24.0430 C   0  0  0  0  0  0  0  0  0  0  0  0
    5.3470   -3.0490   25.2770 C   0  0  0  0  0  0  0  0  0  0  0  0
    4.7330   -1.9960   25.1340 O   0  0  0  0  0  0  0  0  0  0  0  0
    5.3300   -3.6020   26.5840 N   0  0  0  0  0  0  0  0  0  0  0  0
    6.4520   -3.4530   27.3760 C   0  0  0  0  0  0  0  0  0  0  0  0
    6.4420   -4.6960   28.2840 C   0  0  0  0  0  0  0  0  0  0  0  0
    5.2970   -4.9340   29.0080 C   0  0  0  0  0  0  0  0  0  0  0  0
    4.3160   -4.0710   28.6420 C   0  0  0  0  0  0  0  0  0  0  0  0
    3.1220   -4.0960   29.2100 C   0  0  0  0  0  0  0  0  0  0  0  0
    2.7070   -5.0240   30.2660 C   0  0  0  0  0  0  0  0  0  0  0  0
    3.7950   -5.9720   30.6420 C   0  0  0  0  0  0  0  0  0  0  0  0
    5.2250   -6.0590   30.0680 C   0  0  0  0  0  0  0  0  0  0  0  0
    5.9900   -7.1470   30.7130 C   0  0  0  0  0  0  0  0  0  0  0  0
    6.2980   -8.1970   29.8440 O   0  0  0  0  0  0  0  0  0  0  0  0
    6.2990   -7.1400   31.9300 O   0  0  0  0  0  0  0  0  0  0  0  0
    5.5590   -7.8960   32.8470 C   0  0  0  0  0  0  0  0  0  0  0  0
    4.4790   -3.1370   27.6700 C   0  0  0  0  0  0  0  0  0  0  0  0
    7.3910   -3.0680   23.7850 C   0  0  0  0  0  0  0  0  0  0  0  0
    7.6590   -3.2940   22.3170 C   0  0  0  0  0  0  0  0  0  0  0  0
  1  2  1  0
  2  3  2  0
  2  4  1  0
  4  5  1  0
  5  6  1  0
  6  7  1  0
  7  8  1  0
  8  9  2  0
  8 10  1  0
 10 11  1  0
 11 12  1  0
 12 13  1  0
 13 14  2  0
 14 15  1  0
 15 16  2  0
 16 17  1  0
 13 18  1  0
 17 18  2  0
 18 19  1  0
 19 20  2  0
 19 21  1  0
 21 22  1  0
 10 23  1  0
 14 23  1  0
  7 24  1  0
  4 25  1  0
 24 25  1  0
M  END
