piperidine-amides-6444-covalent
     RDKit          3D

 25 29  0  0  0  0  0  0  0  0999 V2000
    7.0510   -3.3390   19.3130 C   0  0  0  0  0  0  0  0  0  0  0  0
    6.3650   -4.1760   20.3090 C   0  0  0  0  0  0  0  0  0  0  0  0
    5.3680   -4.8510   19.9780 O   0  0  0  0  0  0  0  0  0  0  0  0
    6.8470   -4.2610   21.6180 N   0  0  0  0  0  0  0  0  0  0  0  0
    6.6560   -5.4980   22.3490 C   0  0  0  0  0  0  0  0  0  0  0  0
    5.9310   -5.1570   23.6620 C   0  0  0  0  0  0  0  0  0  0  0  0
    6.1590   -3.6830   23.8870 C   0  0  0  0  0  0  0  0  0  0  0  0
    5.8020   -3.2530   25.2460 C   0  0  0  0  0  0  0  0  0  0  0  0
    4.7170   -3.6270   25.7420 O   0  0  0  0  0  0  0  0  0  0  0  0
    6.7140   -2.4200   25.9250 N   0  0  0  0  0  0  0  0  0  0  0  0
    6.2930   -1.2060   26.5700 C   0  0  0  0  0  0  0  0  0  0  0  0
    5.8780   -0.1270   25.5590 C   0  0  1  0  0  0  0  0  0  0  0  0
    6.5640   -0.1920   24.3780 C   0  0  0  0  0  0  0  0  0  0  0  0
    6.0970    0.7910   23.5890 C   0  0  2  0  0  0  0  0  0  0  0  0
    6.3530    2.0230   24.0770 C   0  0  0  0  0  0  0  0  0  0  0  0
    5.8320    2.2460   25.3050 C   0  0  1  0  0  0  0  0  0  0  0  0
    4.4000    2.7020   25.4720 C   0  0  0  0  0  0  0  0  0  0  0  0
    4.0350    1.3210   24.8140 C   0  0  1  0  0  0  0  0  0  0  0  0
    4.7580    0.6580   23.6510 C   0  0  0  0  0  0  0  0  0  0  0  0
    4.5400   -0.1220   25.1940 C   0  0  0  0  0  0  0  0  0  0  0  0
    5.8640    1.1180   26.1370 C   0  0  0  0  0  0  0  0  0  0  0  0
    6.8140   -0.8780   27.9510 C   0  0  0  0  0  0  0  0  0  0  0  0
    5.5050   -1.2830   27.6470 C   0  0  0  0  0  0  0  0  0  0  0  0
    7.5940   -3.2930   23.6420 C   0  0  0  0  0  0  0  0  0  0  0  0
    7.7120   -3.2190   22.1300 C   0  0  0  0  0  0  0  0  0  0  0  0
  1  2  1  0
  2  3  2  0
  2  4  1  0
  4  5  1  0
  5  6  1  0
  6  7  1  0
  7  8  1  0
  8  9  2  0
  8 10  1  0
 11 10  1  0
 12 11  1  1
 12 13  1  0
 14 13  1  1
 14 15  1  0
 16 15  1  6
 16 17  1  0
 18 17  1  1
 14 19  1  0
 18 19  1  0
 12 20  1  0
 18 20  1  0
 12 21  1  0
 16 21  1  0
 11 22  1  0
 11 23  1  0
 22 23  1  0
  7 24  1  0
  4 25  1  0
 24 25  1  0
M  END
