piperidine-amides-23425-covalent
     RDKit          3D

 24 25  0  0  0  0  0  0  0  0999 V2000
    7.1240   -3.3060   19.2470 C   0  0  0  0  0  0  0  0  0  0  0  0
    6.3510   -4.0240   20.2680 C   0  0  0  0  0  0  0  0  0  0  0  0
    5.2850   -4.5660   19.8940 O   0  0  0  0  0  0  0  0  0  0  0  0
    6.8250   -4.1460   21.5990 N   0  0  0  0  0  0  0  0  0  0  0  0
    6.5220   -5.3360   22.3120 C   0  0  0  0  0  0  0  0  0  0  0  0
    5.9590   -5.0470   23.6180 C   0  0  0  0  0  0  0  0  0  0  0  0
    6.1540   -3.6360   23.9780 C   0  0  0  0  0  0  0  0  0  0  0  0
    5.8800   -3.3880   25.4330 C   0  0  0  0  0  0  0  0  0  0  0  0
    4.6920   -3.3090   25.8030 O   0  0  0  0  0  0  0  0  0  0  0  0
    6.9190   -3.2310   26.3810 N   0  0  0  0  0  0  0  0  0  0  0  0
    7.5400   -4.2680   27.1260 C   0  0  0  0  0  0  0  0  0  0  0  0
    6.7730   -5.4520   27.5110 C   0  0  0  0  0  0  0  0  0  0  0  0
    6.2150   -6.2670   28.6900 C   0  0  0  0  0  0  0  0  0  0  0  0
    7.4110   -1.8950   26.5660 C   0  0  0  0  0  0  0  0  0  0  0  0
    7.1350   -1.3740   27.9760 C   0  0  0  0  0  0  0  0  0  0  0  0
    5.7770   -0.7840   27.7220 C   0  0  0  0  0  0  0  0  0  0  0  0
    5.3350   -0.1890   29.0720 C   0  0  0  0  0  0  0  0  0  0  0  0
    6.0790   -0.1790   30.3840 C   0  0  0  0  0  0  0  0  0  0  0  0
    5.5500    0.4070   31.5490 O   0  0  0  0  0  0  0  0  0  0  0  0
    6.3510    0.4060   32.7210 C   0  0  0  0  0  0  0  0  0  0  0  0
    7.4240   -0.8390   30.3610 C   0  0  0  0  0  0  0  0  0  0  0  0
    7.9420   -1.4460   29.1190 C   0  0  0  0  0  0  0  0  0  0  0  0
    7.4910   -3.1200   23.5560 C   0  0  0  0  0  0  0  0  0  0  0  0
    7.6470   -3.0980   22.1740 C   0  0  0  0  0  0  0  0  0  0  0  0
  1  2  1  0
  2  3  2  0
  2  4  1  0
  4  5  1  0
  5  6  1  0
  6  7  1  0
  7  8  1  0
  8  9  2  0
  8 10  1  0
 10 11  1  0
 11 12  1  0
 12 13  2  3
 10 14  1  0
 14 15  1  0
 15 16  2  0
 16 17  1  0
 17 18  2  0
 18 19  1  0
 19 20  1  0
 18 21  1  0
 15 22  1  0
 21 22  2  0
  7 23  1  0
  4 24  1  0
 23 24  1  0
M  END
