piperidine-amides-14871-covalent
     RDKit          3D

 21 21  0  0  0  0  0  0  0  0999 V2000
    7.0940   -3.2510   19.2050 C   0  0  0  0  0  0  0  0  0  0  0  0
    6.3420   -3.9990   20.2190 C   0  0  0  0  0  0  0  0  0  0  0  0
    5.2810   -4.5500   19.8790 O   0  0  0  0  0  0  0  0  0  0  0  0
    6.8330   -4.1230   21.5380 N   0  0  0  0  0  0  0  0  0  0  0  0
    6.5600   -5.3340   22.2580 C   0  0  0  0  0  0  0  0  0  0  0  0
    6.1620   -5.0870   23.7010 C   0  0  0  0  0  0  0  0  0  0  0  0
    6.3030   -3.6180   24.0860 C   0  0  0  0  0  0  0  0  0  0  0  0
    6.1930   -3.4700   25.5680 C   0  0  0  0  0  0  0  0  0  0  0  0
    5.0650   -3.2540   26.0160 O   0  0  0  0  0  0  0  0  0  0  0  0
    7.3900   -3.5700   26.2900 N   0  0  0  0  0  0  0  0  0  0  0  0
    7.5470   -4.2830   27.5260 C   0  0  2  0  0  0  0  0  0  0  0  0
    8.7080   -5.0680   27.6530 C   0  0  0  0  0  0  0  0  0  0  0  0
    9.4330   -5.3620   26.5210 C   0  0  0  0  0  0  0  0  0  0  0  0
    6.3620   -5.1880   27.6950 C   0  0  0  0  0  0  0  0  0  0  0  0
    5.3910   -4.6430   28.7070 C   0  0  0  0  0  0  0  0  0  0  0  0
    4.8130   -5.6760   29.7040 C   0  0  0  0  0  0  0  0  0  0  0  0
    3.5760   -5.4740   29.8210 O   0  0  0  0  0  0  0  0  0  0  0  0
    5.5400   -6.5860   30.3070 O   0  0  0  0  0  0  0  0  0  0  0  0
    5.5140   -7.7650   29.5710 C   0  0  0  0  0  0  0  0  0  0  0  0
    7.5510   -3.0170   23.5770 C   0  0  0  0  0  0  0  0  0  0  0  0
    7.6770   -3.0860   22.0620 C   0  0  0  0  0  0  0  0  0  0  0  0
  1  2  1  0
  2  3  2  0
  2  4  1  0
  4  5  1  0
  5  6  1  0
  6  7  1  0
  7  8  1  0
  8  9  2  0
  8 10  1  0
 10 11  1  0
 11 12  1  6
 12 13  1  0
 11 14  1  0
 14 15  1  0
 15 16  1  0
 16 17  2  0
 16 18  1  0
 18 19  1  0
  7 20  1  0
  4 21  1  0
 20 21  1  0
M  END
