piperidine-amides-23897-covalent
     RDKit          3D

 24 25  0  0  0  0  0  0  0  0999 V2000
    7.1090   -3.2880   19.2500 C   0  0  0  0  0  0  0  0  0  0  0  0
    6.3610   -4.0400   20.2760 C   0  0  0  0  0  0  0  0  0  0  0  0
    5.2930   -4.5770   19.8980 O   0  0  0  0  0  0  0  0  0  0  0  0
    6.8390   -4.2040   21.6060 N   0  0  0  0  0  0  0  0  0  0  0  0
    7.6500   -3.1820   22.1910 C   0  0  0  0  0  0  0  0  0  0  0  0
    7.2840   -2.9270   23.5640 C   0  0  0  0  0  0  0  0  0  0  0  0
    6.0950   -3.7070   23.9080 C   0  0  0  0  0  0  0  0  0  0  0  0
    5.5610   -3.4140   25.2820 C   0  0  0  0  0  0  0  0  0  0  0  0
    4.3420   -3.5650   25.4740 O   0  0  0  0  0  0  0  0  0  0  0  0
    6.3520   -2.9620   26.3590 N   0  0  0  0  0  0  0  0  0  0  0  0
    6.7350   -1.6010   26.5170 C   0  0  0  0  0  0  0  0  0  0  0  0
    5.7210   -0.5480   26.5900 C   0  0  0  0  0  0  0  0  0  0  0  0
    5.6440    0.2420   25.5930 O   0  0  0  0  0  0  0  0  0  0  0  0
    6.2770   -3.7130   27.6030 C   0  0  2  0  0  0  0  0  0  0  0  0
    5.8780   -5.0500   27.5550 C   0  0  0  0  0  0  0  0  0  0  0  0
    6.6600   -5.3650   28.8340 C   0  0  0  0  0  0  0  0  0  0  0  0
    5.3080   -3.2040   28.5930 C   0  0  0  0  0  0  0  0  0  0  0  0
    5.7710   -1.9320   29.3240 C   0  0  0  0  0  0  0  0  0  0  0  0
    4.9920   -1.1960   30.3720 C   0  0  0  0  0  0  0  0  0  0  0  0
    3.6520   -1.8120   30.6810 C   0  0  0  0  0  0  0  0  0  0  0  0
    3.1580   -3.0860   29.9710 C   0  0  0  0  0  0  0  0  0  0  0  0
    4.0550   -3.7080   28.9430 C   0  0  0  0  0  0  0  0  0  0  0  0
    6.2590   -5.1770   23.6660 C   0  0  0  0  0  0  0  0  0  0  0  0
    6.5550   -5.4280   22.3210 C   0  0  0  0  0  0  0  0  0  0  0  0
  1  2  1  0
  2  3  2  0
  2  4  1  0
  4  5  1  0
  5  6  1  0
  6  7  1  0
  7  8  1  0
  8  9  2  0
  8 10  1  0
 10 11  1  0
 11 12  1  0
 12 13  1  0
 10 14  1  0
 14 15  1  6
 15 16  1  0
 14 17  1  0
 17 18  2  0
 18 19  1  0
 19 20  2  0
 20 21  1  0
 17 22  1  0
 21 22  2  0
  7 23  1  0
  4 24  1  0
 23 24  1  0
M  END
