piperidine-amides-32511-covalent
     RDKit          3D

 29 31  0  0  0  0  0  0  0  0999 V2000
    7.1610   -3.2920   19.2220 C   0  0  0  0  0  0  0  0  0  0  0  0
    6.3670   -4.0470   20.2230 C   0  0  0  0  0  0  0  0  0  0  0  0
    5.2770   -4.5400   19.8840 O   0  0  0  0  0  0  0  0  0  0  0  0
    6.9080   -4.2340   21.5060 N   0  0  0  0  0  0  0  0  0  0  0  0
    7.6730   -3.2110   22.1730 C   0  0  0  0  0  0  0  0  0  0  0  0
    6.8120   -2.7220   23.3380 C   0  0  0  0  0  0  0  0  0  0  0  0
    6.5280   -3.8990   24.2170 C   0  0  0  0  0  0  0  0  0  0  0  0
    5.7350   -3.5510   25.4190 C   0  0  0  0  0  0  0  0  0  0  0  0
    4.5310   -3.8320   25.3720 O   0  0  0  0  0  0  0  0  0  0  0  0
    6.3200   -2.9180   26.5210 N   0  0  0  0  0  0  0  0  0  0  0  0
    6.7030   -1.5540   26.4260 C   0  0  0  0  0  0  0  0  0  0  0  0
    5.8200   -0.5660   26.0460 C   0  0  0  0  0  0  0  0  0  0  0  0
    4.8040   -0.8920   25.0960 C   0  0  0  0  0  0  0  0  0  0  0  0
    3.8520   -0.0020   24.6280 C   0  0  0  0  0  0  0  0  0  0  0  0
    3.8630    1.3820   25.1230 C   0  0  0  0  0  0  0  0  0  0  0  0
    4.9020    1.8250   26.1320 C   0  0  0  0  0  0  0  0  0  0  0  0
    5.8630    0.7120   26.5300 C   0  0  0  0  0  0  0  0  0  0  0  0
    6.1890   -3.5890   27.7900 C   0  0  2  0  0  0  0  0  0  0  0  0
    5.9750   -5.0710   27.8410 C   0  0  0  0  0  0  0  0  0  0  0  0
    5.0880   -5.7110   26.9080 N   0  0  0  0  0  0  0  0  0  0  0  0
    6.6740   -5.5010   28.7800 O   0  0  0  0  0  0  0  0  0  0  0  0
    5.3690   -2.8000   28.6050 C   0  0  0  0  0  0  0  0  0  0  0  0
    3.9690   -2.9990   28.6330 C   0  0  0  0  0  0  0  0  0  0  0  0
    3.9550   -1.8640   29.6410 C   0  0  0  0  0  0  0  0  0  0  0  0
    4.9670   -1.1740   30.1070 N   0  0  0  0  0  0  0  0  0  0  0  0
    5.8660   -1.7940   29.4230 N   0  0  0  0  0  0  0  0  0  0  0  0
    7.1060   -1.3390   29.6420 C   0  0  0  0  0  0  0  0  0  0  0  0
    5.7470   -4.9760   23.4840 C   0  0  0  0  0  0  0  0  0  0  0  0
    6.5010   -5.3950   22.2770 C   0  0  0  0  0  0  0  0  0  0  0  0
  1  2  1  0
  2  3  2  0
  2  4  1  0
  4  5  1  0
  5  6  1  0
  6  7  1  0
  7  8  1  0
  8  9  2  0
  8 10  1  0
 10 11  1  0
 11 12  1  0
 12 13  2  0
 13 14  1  0
 14 15  2  0
 15 16  1  0
 12 17  1  0
 16 17  2  0
 10 18  1  0
 18 19  1  6
 19 20  1  0
 19 21  2  0
 18 22  1  0
 22 23  2  0
 23 24  1  0
 24 25  2  0
 22 26  1  0
 25 26  1  0
 26 27  1  0
  7 28  1  0
  4 29  1  0
 28 29  1  0
M  END
