piperidine-amides-31891-covalent
     RDKit          3D

 24 26  0  0  0  0  0  0  0  0999 V2000
    7.1490   -3.2760   19.3580 C   0  0  0  0  0  0  0  0  0  0  0  0
    6.4030   -4.0470   20.3280 C   0  0  0  0  0  0  0  0  0  0  0  0
    5.3740   -4.6880   19.9380 O   0  0  0  0  0  0  0  0  0  0  0  0
    6.7960   -4.1450   21.6800 N   0  0  0  0  0  0  0  0  0  0  0  0
    6.5980   -5.4670   22.3360 C   0  0  0  0  0  0  0  0  0  0  0  0
    6.0770   -5.0400   23.7650 C   0  0  0  0  0  0  0  0  0  0  0  0
    5.8780   -3.5480   23.6750 C   0  0  0  0  0  0  0  0  0  0  0  0
    4.9120   -2.9410   24.7870 C   0  0  0  0  0  0  0  0  0  0  0  0
    3.7570   -2.9720   24.4050 O   0  0  0  0  0  0  0  0  0  0  0  0
    5.5640   -2.5740   25.8030 N   0  0  0  0  0  0  0  0  0  0  0  0
    6.4700   -2.2940   26.6840 C   0  0  0  0  0  0  0  0  0  0  0  0
    5.9840   -2.2400   27.8610 C   0  0  0  0  0  0  0  0  0  0  0  0
    5.3730   -1.0820   28.3990 C   0  0  0  0  0  0  0  0  0  0  0  0
    6.0020   -0.0690   28.9990 N   0  0  0  0  0  0  0  0  0  0  0  0
    5.5130   -3.5840   28.4530 C   0  0  0  0  0  0  0  0  0  0  0  0
    4.1410   -3.3720   29.0480 C   0  0  0  0  0  0  0  0  0  0  0  0
    3.7240   -4.6250   29.5720 C   0  0  0  0  0  0  0  0  0  0  0  0
    4.1730   -5.9880   29.7150 C   0  0  0  0  0  0  0  0  0  0  0  0
    3.3660   -7.5150   30.4970 Br  0  0  0  0  0  0  0  0  0  0  0  0
    5.5520   -5.8320   29.0250 C   0  0  0  0  0  0  0  0  0  0  0  0
    6.1550   -4.7060   28.4450 N   0  0  0  0  0  0  0  0  0  0  0  0
    4.6990   -2.3550   27.0220 C   0  0  0  0  0  0  0  0  0  0  0  0
    7.2280   -2.8510   23.5240 C   0  0  0  0  0  0  0  0  0  0  0  0
    7.7110   -3.1730   22.2860 C   0  0  0  0  0  0  0  0  0  0  0  0
  1  2  1  0
  2  3  2  0
  2  4  1  0
  4  5  1  0
  5  6  1  0
  6  7  1  0
  7  8  1  0
  8  9  2  0
  8 10  1  0
 10 11  1  0
 11 12  1  0
 12 13  1  0
 13 14  3  0
 12 15  1  0
 15 16  2  0
 16 17  1  0
 17 18  2  0
 18 19  1  0
 18 20  1  0
 15 21  1  0
 20 21  2  0
 10 22  1  0
 12 22  1  0
  7 23  1  0
  4 24  1  0
 23 24  1  0
M  END
