piperidine-amides-5274-covalent
     RDKit          3D

 21 22  0  0  0  0  0  0  0  0999 V2000
    7.1480   -3.2840   19.2280 C   0  0  0  0  0  0  0  0  0  0  0  0
    6.3490   -4.0120   20.2370 C   0  0  0  0  0  0  0  0  0  0  0  0
    5.2670   -4.4970   19.8590 O   0  0  0  0  0  0  0  0  0  0  0  0
    6.8350   -4.1790   21.5390 N   0  0  0  0  0  0  0  0  0  0  0  0
    6.4450   -5.3190   22.2970 C   0  0  0  0  0  0  0  0  0  0  0  0
    5.9610   -4.9880   23.6430 C   0  0  0  0  0  0  0  0  0  0  0  0
    6.5670   -3.7860   24.2620 C   0  0  0  0  0  0  0  0  0  0  0  0
    5.7980   -3.3560   25.4630 C   0  0  0  0  0  0  0  0  0  0  0  0
    4.5760   -3.1480   25.3260 O   0  0  0  0  0  0  0  0  0  0  0  0
    6.4120   -3.1830   26.7240 N   0  0  0  0  0  0  0  0  0  0  0  0
    6.1670   -4.0530   27.9110 C   0  0  0  0  0  0  0  0  0  0  0  0
    5.9740   -5.5080   27.5900 C   0  0  0  0  0  0  0  0  0  0  0  0
    5.0750   -6.2790   28.4310 C   0  0  0  0  0  0  0  0  0  0  0  0
    3.8350   -6.7570   28.1770 C   0  0  0  0  0  0  0  0  0  0  0  0
    3.0890   -7.4750   29.0530 C   0  0  0  0  0  0  0  0  0  0  0  0
    3.6210   -7.7330   30.2720 C   0  0  0  0  0  0  0  0  0  0  0  0
    4.8800   -7.2950   30.6400 C   0  0  0  0  0  0  0  0  0  0  0  0
    5.4090   -7.5610   31.8680 C   0  0  0  0  0  0  0  0  0  0  0  0
    5.6020   -6.5800   29.7410 N   0  0  0  0  0  0  0  0  0  0  0  0
    6.7170   -2.6740   23.2620 C   0  0  0  0  0  0  0  0  0  0  0  0
    7.6290   -3.1750   22.2120 C   0  0  0  0  0  0  0  0  0  0  0  0
  1  2  1  0
  2  3  2  0
  2  4  1  0
  4  5  1  0
  5  6  1  0
  6  7  1  0
  7  8  1  0
  8  9  2  0
  8 10  1  0
 10 11  1  0
 11 12  1  0
 12 13  1  0
 13 14  2  0
 14 15  1  0
 15 16  2  0
 16 17  1  0
 17 18  1  0
 13 19  1  0
 17 19  2  0
  7 20  1  0
  4 21  1  0
 20 21  1  0
M  END
