piperidine-amides-6260-covalent
     RDKit          3D

 26 28  0  0  0  0  0  0  0  0999 V2000
    7.0840   -3.3690   19.3550 C   0  0  0  0  0  0  0  0  0  0  0  0
    6.3790   -4.1930   20.3430 C   0  0  0  0  0  0  0  0  0  0  0  0
    5.3900   -4.8740   19.9940 O   0  0  0  0  0  0  0  0  0  0  0  0
    6.8460   -4.2520   21.6670 N   0  0  0  0  0  0  0  0  0  0  0  0
    7.6800   -3.1660   22.1510 C   0  0  0  0  0  0  0  0  0  0  0  0
    7.4800   -3.0650   23.6680 C   0  0  0  0  0  0  0  0  0  0  0  0
    6.0750   -3.5450   23.9260 C   0  0  0  0  0  0  0  0  0  0  0  0
    5.6310   -3.2050   25.2950 C   0  0  0  0  0  0  0  0  0  0  0  0
    4.4130   -3.2640   25.5540 O   0  0  0  0  0  0  0  0  0  0  0  0
    6.5830   -2.8220   26.2680 N   0  0  0  0  0  0  0  0  0  0  0  0
    6.4620   -1.5850   26.9920 C   0  0  0  0  0  0  0  0  0  0  0  0
    7.0030   -1.6320   28.3920 C   0  0  0  0  0  0  0  0  0  0  0  0
    6.9540   -0.5270   29.1810 C   0  0  0  0  0  0  0  0  0  0  0  0
    6.4010    0.6430   28.6940 C   0  0  0  0  0  0  0  0  0  0  0  0
    6.3530    1.7760   29.5110 C   0  0  0  0  0  0  0  0  0  0  0  0
    5.8860    0.7310   27.4020 C   0  0  0  0  0  0  0  0  0  0  0  0
    5.3540    1.9060   26.9740 N   0  0  0  0  0  0  0  0  0  0  0  0
    6.3440    2.8080   26.8040 C   0  0  0  0  0  0  0  0  0  0  0  0
    5.7240    4.1730   26.6280 C   0  0  0  0  0  0  0  0  0  0  0  0
    4.6070    4.4040   27.5840 C   0  0  0  0  0  0  0  0  0  0  0  0
    4.0300    2.7000   27.6360 S   0  0  0  0  0  0  0  0  0  0  0  0
    2.8290    2.5580   26.7400 O   0  0  0  0  0  0  0  0  0  0  0  0
    3.7610    2.2380   29.0400 O   0  0  0  0  0  0  0  0  0  0  0  0
    5.9280   -0.3970   26.5690 C   0  0  0  0  0  0  0  0  0  0  0  0
    6.0420   -5.0330   23.7190 C   0  0  0  0  0  0  0  0  0  0  0  0
    6.5020   -5.3740   22.4770 C   0  0  0  0  0  0  0  0  0  0  0  0
  1  2  1  0
  2  3  2  0
  2  4  1  0
  4  5  1  0
  5  6  1  0
  6  7  1  0
  7  8  1  0
  8  9  2  0
  8 10  1  0
 10 11  1  0
 11 12  2  0
 12 13  1  0
 13 14  2  0
 14 15  1  0
 14 16  1  0
 16 17  1  0
 17 18  1  0
 18 19  1  0
 19 20  1  0
 21 17  1  0
 20 21  1  0
 21 22  2  0
 21 23  2  0
 11 24  1  0
 16 24  2  0
  7 25  1  0
  4 26  1  0
 25 26  1  0
M  END
