piperidine-amides-1593-covalent
     RDKit          3D

 21 22  0  0  0  0  0  0  0  0999 V2000
    7.0660   -3.2650   19.2160 C   0  0  0  0  0  0  0  0  0  0  0  0
    6.2880   -4.0460   20.2230 C   0  0  0  0  0  0  0  0  0  0  0  0
    5.2410   -4.6090   19.8850 O   0  0  0  0  0  0  0  0  0  0  0  0
    6.7850   -4.1590   21.5290 N   0  0  0  0  0  0  0  0  0  0  0  0
    7.6270   -3.1330   22.0640 C   0  0  0  0  0  0  0  0  0  0  0  0
    7.3960   -3.1660   23.5540 C   0  0  0  0  0  0  0  0  0  0  0  0
    6.0290   -3.6530   23.7980 C   0  0  0  0  0  0  0  0  0  0  0  0
    5.5360   -3.3070   25.1550 C   0  0  0  0  0  0  0  0  0  0  0  0
    4.3170   -3.1590   25.2590 O   0  0  0  0  0  0  0  0  0  0  0  0
    6.4210   -3.1720   26.2360 N   0  0  0  0  0  0  0  0  0  0  0  0
    6.4920   -2.1150   27.1910 C   0  0  0  0  0  0  0  0  0  0  0  0
    5.4470   -1.5790   27.8990 C   0  0  2  0  0  0  0  0  0  0  0  0
    6.1000   -1.2760   29.1710 N   0  0  0  0  0  0  0  0  0  0  0  0
    7.4690   -1.0310   29.1940 C   0  0  0  0  0  0  0  0  0  0  0  0
    5.3210   -1.1860   30.2740 C   0  0  0  0  0  0  0  0  0  0  0  0
    4.4800   -2.6560   28.2450 C   0  0  0  0  0  0  0  0  0  0  0  0
    3.0560   -2.2100   28.4700 C   0  0  0  0  0  0  0  0  0  0  0  0
    3.0430   -0.5570   27.9640 S   0  0  0  0  0  0  0  0  0  0  0  0
    4.7700   -0.4380   27.4530 C   0  0  0  0  0  0  0  0  0  0  0  0
    5.9890   -5.1670   23.5770 C   0  0  0  0  0  0  0  0  0  0  0  0
    6.5230   -5.4120   22.2060 C   0  0  0  0  0  0  0  0  0  0  0  0
  1  2  1  0
  2  3  2  0
  2  4  1  0
  4  5  1  0
  5  6  1  0
  6  7  1  0
  7  8  1  0
  8  9  2  0
  8 10  1  0
 10 11  1  0
 12 11  1  6
 12 13  1  0
 13 14  1  0
 13 15  1  0
 12 16  1  0
 16 17  1  0
 17 18  1  0
 12 19  1  0
 18 19  1  0
  7 20  1  0
  4 21  1  0
 20 21  1  0
M  END
