piperidine-amides-18902-covalent
     RDKit          3D

 22 24  0  0  0  0  0  0  0  0999 V2000
    7.1140   -3.4110   19.3150 C   0  0  0  0  0  0  0  0  0  0  0  0
    6.4110   -4.1590   20.3210 C   0  0  0  0  0  0  0  0  0  0  0  0
    5.3370   -4.7400   19.9670 O   0  0  0  0  0  0  0  0  0  0  0  0
    6.9120   -4.3320   21.6280 N   0  0  0  0  0  0  0  0  0  0  0  0
    6.5390   -5.5460   22.3620 C   0  0  0  0  0  0  0  0  0  0  0  0
    5.4650   -4.8830   23.2910 C   0  0  0  0  0  0  0  0  0  0  0  0
    6.2320   -3.8960   24.1440 C   0  0  0  0  0  0  0  0  0  0  0  0
    5.3000   -3.1990   25.2320 C   0  0  0  0  0  0  0  0  0  0  0  0
    4.4230   -2.5390   24.7040 O   0  0  0  0  0  0  0  0  0  0  0  0
    5.7290   -3.5200   26.3740 N   0  0  0  0  0  0  0  0  0  0  0  0
    6.3130   -3.7970   27.5360 C   0  0  0  0  0  0  0  0  0  0  0  0
    6.4940   -5.0850   28.0220 C   0  0  0  0  0  0  0  0  0  0  0  0
    6.7790   -5.2370   29.3670 C   0  0  0  0  0  0  0  0  0  0  0  0
    5.4260   -5.8850   29.3680 C   0  0  0  0  0  0  0  0  0  0  0  0
    4.9700   -5.7220   27.9260 C   0  0  0  0  0  0  0  0  0  0  0  0
    4.1910   -6.8840   27.7420 C   0  0  0  0  0  0  0  0  0  0  0  0
    3.4750   -7.3660   26.6310 C   0  0  0  0  0  0  0  0  0  0  0  0
    3.8780   -6.1720   25.7780 C   0  0  0  0  0  0  0  0  0  0  0  0
    4.7570   -4.9240   26.0850 C   0  0  0  0  0  0  0  0  0  0  0  0
    5.4060   -4.5870   27.2440 C   0  0  0  0  0  0  0  0  0  0  0  0
    7.1110   -2.8740   23.4260 C   0  0  0  0  0  0  0  0  0  0  0  0
    7.6970   -3.3150   22.2850 C   0  0  0  0  0  0  0  0  0  0  0  0
  1  2  1  0
  2  3  2  0
  2  4  1  0
  4  5  1  0
  5  6  1  0
  6  7  1  0
  7  8  1  0
  8  9  2  0
  8 10  1  0
 10 11  1  0
 11 12  1  0
 12 13  1  0
 13 14  2  0
 14 15  1  0
 15 16  1  0
 16 17  2  0
 17 18  1  0
 18 19  2  0
 10 20  1  0
 15 20  2  0
 19 20  1  0
  7 21  1  0
  4 22  1  0
 21 22  1  0
M  END
