piperidine-amides-10172-covalent
     RDKit          3D

 25 26  0  0  0  0  0  0  0  0999 V2000
    7.0460   -3.3810   19.3560 C   0  0  0  0  0  0  0  0  0  0  0  0
    6.3580   -4.2340   20.3260 C   0  0  0  0  0  0  0  0  0  0  0  0
    5.2890   -4.7700   19.9520 O   0  0  0  0  0  0  0  0  0  0  0  0
    6.9320   -4.4580   21.5730 N   0  0  0  0  0  0  0  0  0  0  0  0
    6.5470   -5.5850   22.4020 C   0  0  0  0  0  0  0  0  0  0  0  0
    5.7720   -5.0890   23.6070 C   0  0  0  0  0  0  0  0  0  0  0  0
    6.3860   -3.8680   24.2560 C   0  0  0  0  0  0  0  0  0  0  0  0
    5.5130   -3.3570   25.3430 C   0  0  0  0  0  0  0  0  0  0  0  0
    4.2770   -3.4240   25.1710 O   0  0  0  0  0  0  0  0  0  0  0  0
    5.9810   -2.8050   26.5600 N   0  0  0  0  0  0  0  0  0  0  0  0
    6.3150   -1.3960   26.6580 C   0  0  0  0  0  0  0  0  0  0  0  0
    7.1820   -1.1900   25.4080 C   0  0  0  0  0  0  0  0  0  0  0  0
    8.0660   -2.0090   25.0920 O   0  0  0  0  0  0  0  0  0  0  0  0
    7.0180   -0.1010   24.5260 O   0  0  0  0  0  0  0  0  0  0  0  0
    7.8340    0.0750   23.3640 C   0  0  0  0  0  0  0  0  0  0  0  0
    8.8640   -0.8430   23.2250 C   0  0  0  0  0  0  0  0  0  0  0  0
    8.3020    1.3660   23.3570 C   0  0  0  0  0  0  0  0  0  0  0  0
    6.8990    0.1290   22.3590 C   0  0  0  0  0  0  0  0  0  0  0  0
    5.3630   -0.4090   26.7660 C   0  0  0  0  0  0  0  0  0  0  0  0
    5.8170    1.0220   26.9810 C   0  0  0  0  0  0  0  0  0  0  0  0
    6.1780    0.8830   28.4450 C   0  0  0  0  0  0  0  0  0  0  0  0
    6.4230   -0.5370   28.8520 C   0  0  0  0  0  0  0  0  0  0  0  0
    7.1940   -1.4280   27.9020 C   0  0  0  0  0  0  0  0  0  0  0  0
    6.6200   -2.8050   23.2550 C   0  0  0  0  0  0  0  0  0  0  0  0
    7.5450   -3.3420   22.2060 C   0  0  0  0  0  0  0  0  0  0  0  0
  1  2  1  0
  2  3  2  0
  2  4  1  0
  4  5  1  0
  5  6  1  0
  6  7  1  0
  7  8  1  0
  8  9  2  0
  8 10  1  0
 10 11  1  0
 11 12  1  0
 12 13  2  0
 12 14  1  0
 15 14  1  0
 15 16  1  0
 15 17  1  0
 15 18  1  0
 11 19  1  0
 19 20  1  0
 20 21  1  0
 21 22  1  0
 11 23  1  0
 22 23  1  0
  7 24  1  0
  4 25  1  0
 24 25  1  0
M  END
