piperidine-amides-11073-covalent
     RDKit          3D

 21 21  0  0  0  0  0  0  0  0999 V2000
    7.0830   -3.2870   19.2380 C   0  0  0  0  0  0  0  0  0  0  0  0
    6.3490   -4.0470   20.2570 C   0  0  0  0  0  0  0  0  0  0  0  0
    5.3150   -4.6480   19.9210 O   0  0  0  0  0  0  0  0  0  0  0  0
    6.7970   -4.1600   21.5920 N   0  0  0  0  0  0  0  0  0  0  0  0
    6.6980   -5.4090   22.3090 C   0  0  0  0  0  0  0  0  0  0  0  0
    6.0950   -5.0810   23.6500 C   0  0  0  0  0  0  0  0  0  0  0  0
    6.1020   -3.6060   23.9100 C   0  0  0  0  0  0  0  0  0  0  0  0
    5.7010   -3.2400   25.2910 C   0  0  0  0  0  0  0  0  0  0  0  0
    4.5010   -2.9160   25.5290 O   0  0  0  0  0  0  0  0  0  0  0  0
    6.5970   -3.2200   26.3830 N   0  0  0  0  0  0  0  0  0  0  0  0
    6.3240   -3.9810   27.6290 C   0  0  0  0  0  0  0  0  0  0  0  0
    6.0440   -5.4020   27.2980 C   0  0  0  0  0  0  0  0  0  0  0  0
    5.0710   -5.8570   28.1100 N   0  0  0  0  0  0  0  0  0  0  0  0
    4.1320   -6.8630   27.7650 C   0  0  0  0  0  0  0  0  0  0  0  0
    3.3820   -6.4490   26.5230 C   0  0  0  0  0  0  0  0  0  0  0  0
    3.5490   -7.4570   25.3990 C   0  0  0  0  0  0  0  0  0  0  0  0
    5.2060   -5.9110   29.5470 C   0  0  0  0  0  0  0  0  0  0  0  0
    5.5870   -7.1600   29.9680 C   0  0  0  0  0  0  0  0  0  0  0  0
    5.5980   -7.4620   31.3330 C   0  0  0  0  0  0  0  0  0  0  0  0
    7.4540   -2.9600   23.5930 C   0  0  0  0  0  0  0  0  0  0  0  0
    7.6830   -3.1120   22.0860 C   0  0  0  0  0  0  0  0  0  0  0  0
  1  2  1  0
  2  3  2  0
  2  4  1  0
  4  5  1  0
  5  6  1  0
  6  7  1  0
  7  8  1  0
  8  9  2  0
  8 10  1  0
 10 11  1  0
 11 12  1  0
 12 13  1  0
 13 14  1  0
 14 15  1  0
 15 16  1  0
 13 17  1  0
 17 18  1  0
 18 19  1  0
  7 20  1  0
  4 21  1  0
 20 21  1  0
M  END
