piperidine-amides-33819-covalent
     RDKit          3D

 30 32  0  0  0  0  0  0  0  0999 V2000
    7.1010   -3.3600   19.3130 C   0  0  0  0  0  0  0  0  0  0  0  0
    6.4450   -4.2130   20.3110 C   0  0  0  0  0  0  0  0  0  0  0  0
    5.3670   -4.7550   19.9640 O   0  0  0  0  0  0  0  0  0  0  0  0
    7.0470   -4.4670   21.5690 N   0  0  0  0  0  0  0  0  0  0  0  0
    6.5240   -5.5270   22.3450 C   0  0  0  0  0  0  0  0  0  0  0  0
    5.8480   -5.0950   23.5670 C   0  0  0  0  0  0  0  0  0  0  0  0
    6.3910   -3.8870   24.2420 C   0  0  0  0  0  0  0  0  0  0  0  0
    5.4210   -3.3200   25.2390 C   0  0  0  0  0  0  0  0  0  0  0  0
    4.5700   -2.5120   24.8450 O   0  0  0  0  0  0  0  0  0  0  0  0
    5.4430   -3.6560   26.6010 N   0  0  0  0  0  0  0  0  0  0  0  0
    6.3970   -3.2730   27.5050 C   0  0  0  0  0  0  0  0  0  0  0  0
    6.8060   -4.2890   28.4480 C   0  0  0  0  0  0  0  0  0  0  0  0
    5.6340   -4.2970   29.3690 C   0  0  0  0  0  0  0  0  0  0  0  0
    4.4680   -4.3320   28.6540 C   0  0  0  0  0  0  0  0  0  0  0  0
    3.3430   -4.7560   29.5850 C   0  0  0  0  0  0  0  0  0  0  0  0
    3.5910   -5.0400   30.9660 N   0  0  0  0  0  0  0  0  0  0  0  0
    2.3740   -5.6350   31.5420 C   0  0  0  0  0  0  0  0  0  0  0  0
    1.2870   -4.8220   31.8750 O   0  0  0  0  0  0  0  0  0  0  0  0
    2.2640   -7.0080   31.7860 O   0  0  0  0  0  0  0  0  0  0  0  0
    1.5770   -7.8280   30.8570 C   0  0  0  0  0  0  0  0  0  0  0  0
    2.5420   -8.0560   29.7150 C   0  0  0  0  0  0  0  0  0  0  0  0
    0.2960   -7.1720   30.3850 C   0  0  0  0  0  0  0  0  0  0  0  0
    1.3120   -9.1060   31.5360 C   0  0  0  0  0  0  0  0  0  0  0  0
    2.0720   -4.8360   28.9890 C   0  0  0  0  0  0  0  0  0  0  0  0
    1.8480   -4.5470   27.6320 C   0  0  0  0  0  0  0  0  0  0  0  0
    2.8770   -4.1570   26.7800 C   0  0  0  0  0  0  0  0  0  0  0  0
    2.6910   -3.8310   25.3110 C   0  0  0  0  0  0  0  0  0  0  0  0
    4.2450   -4.0470   27.3230 C   0  0  0  0  0  0  0  0  0  0  0  0
    6.7510   -2.8220   23.2340 C   0  0  0  0  0  0  0  0  0  0  0  0
    7.7280   -3.3930   22.2410 C   0  0  0  0  0  0  0  0  0  0  0  0
  1  2  1  0
  2  3  2  0
  2  4  1  0
  4  5  1  0
  5  6  1  0
  6  7  1  0
  7  8  1  0
  8  9  2  0
  8 10  1  0
 10 11  1  0
 11 12  1  0
 12 13  1  0
 13 14  1  0
 14 15  2  0
 15 16  1  0
 16 17  1  0
 17 18  2  0
 17 19  1  0
 20 19  1  0
 20 21  1  0
 20 22  1  0
 20 23  1  0
 15 24  1  0
 24 25  2  0
 25 26  1  0
 26 27  1  0
 10 28  1  0
 14 28  1  0
 26 28  2  0
  7 29  1  0
  4 30  1  0
 29 30  1  0
M  END
