piperidine-amides-672-covalent
     RDKit          3D

 26 27  0  0  0  0  0  0  0  0999 V2000
    7.2450   -3.2840   19.2860 C   0  0  0  0  0  0  0  0  0  0  0  0
    6.4830   -4.0440   20.2450 C   0  0  0  0  0  0  0  0  0  0  0  0
    5.3670   -4.5460   19.8910 O   0  0  0  0  0  0  0  0  0  0  0  0
    6.9790   -4.2890   21.5350 N   0  0  0  0  0  0  0  0  0  0  0  0
    7.9190   -3.2980   22.1080 C   0  0  0  0  0  0  0  0  0  0  0  0
    6.9010   -2.5590   23.0190 C   0  0  0  0  0  0  0  0  0  0  0  0
    6.5240   -3.6100   24.0220 C   0  0  0  0  0  0  0  0  0  0  0  0
    5.5840   -2.9490   25.0990 C   0  0  0  0  0  0  0  0  0  0  0  0
    4.8760   -2.0930   24.5940 O   0  0  0  0  0  0  0  0  0  0  0  0
    5.7860   -3.4770   26.2250 N   0  0  0  0  0  0  0  0  0  0  0  0
    5.8500   -3.9630   27.4740 C   0  0  2  0  0  0  0  0  0  0  0  0
    6.4890   -3.6880   28.6300 C   0  0  0  0  0  0  0  0  0  0  0  0
    5.5040   -3.1510   29.4860 C   0  0  0  0  0  0  0  0  0  0  0  0
    4.4940   -4.1370   29.9610 C   0  0  0  0  0  0  0  0  0  0  0  0
    5.0570   -5.4990   30.1820 C   0  0  0  0  0  0  0  0  0  0  0  0
    3.9440   -6.3040   30.6380 C   0  0  0  0  0  0  0  0  0  0  0  0
    2.4980   -6.1190   30.9160 C   0  0  0  0  0  0  0  0  0  0  0  0
    1.5680   -7.0200   31.3560 F   0  0  0  0  0  0  0  0  0  0  0  0
    2.2360   -4.6040   30.5880 C   0  0  0  0  0  0  0  0  0  0  0  0
    3.2330   -3.5570   30.0960 C   0  0  0  0  0  0  0  0  0  0  0  0
    5.6070   -5.4720   27.4030 C   0  0  0  0  0  0  0  0  0  0  0  0
    4.4010   -5.9150   27.8790 C   0  0  0  0  0  0  0  0  0  0  0  0
    5.5220   -5.9080   25.9940 C   0  0  0  0  0  0  0  0  0  0  0  0
    6.6760   -6.2440   28.1200 C   0  0  0  0  0  0  0  0  0  0  0  0
    5.9790   -4.9310   23.5600 C   0  0  0  0  0  0  0  0  0  0  0  0
    6.5610   -5.4380   22.2780 C   0  0  0  0  0  0  0  0  0  0  0  0
  1  2  1  0
  2  3  2  0
  2  4  1  0
  4  5  1  0
  5  6  1  0
  6  7  1  0
  7  8  1  0
  8  9  2  0
  8 10  1  0
 10 11  1  0
 11 12  1  6
 12 13  1  0
 13 14  1  0
 14 15  2  0
 15 16  1  0
 16 17  2  0
 17 18  1  0
 17 19  1  0
 14 20  1  0
 19 20  2  0
 11 21  1  0
 21 22  1  0
 21 23  1  0
 21 24  1  0
  7 25  1  0
  4 26  1  0
 25 26  1  0
M  END
