piperidine-amides-46-covalent
     RDKit          3D

 19 19  0  0  0  0  0  0  0  0999 V2000
    7.1110   -3.3580   19.2250 C   0  0  0  0  0  0  0  0  0  0  0  0
    6.4390   -4.1050   20.2620 C   0  0  0  0  0  0  0  0  0  0  0  0
    5.3470   -4.6680   19.9450 O   0  0  0  0  0  0  0  0  0  0  0  0
    6.9730   -4.2910   21.5560 N   0  0  0  0  0  0  0  0  0  0  0  0
    7.8780   -3.2700   22.1260 C   0  0  0  0  0  0  0  0  0  0  0  0
    6.8770   -2.5940   23.1220 C   0  0  0  0  0  0  0  0  0  0  0  0
    6.4420   -3.7010   24.0480 C   0  0  0  0  0  0  0  0  0  0  0  0
    5.5350   -3.1080   25.2060 C   0  0  0  0  0  0  0  0  0  0  0  0
    4.5880   -2.5120   24.7260 O   0  0  0  0  0  0  0  0  0  0  0  0
    6.0120   -3.4010   26.3470 N   0  0  0  0  0  0  0  0  0  0  0  0
    6.4040   -3.6780   27.6120 C   0  0  0  0  0  0  0  0  0  0  0  0
    6.5280   -4.6610   28.5460 C   0  0  0  0  0  0  0  0  0  0  0  0
    5.9720   -5.9180   28.2410 C   0  0  0  0  0  0  0  0  0  0  0  0
    6.5370   -6.4100   27.0660 F   0  0  0  0  0  0  0  0  0  0  0  0
    6.4420   -6.8300   29.2420 F   0  0  0  0  0  0  0  0  0  0  0  0
    4.5060   -6.0640   28.1440 C   0  0  0  0  0  0  0  0  0  0  0  0
    3.9590   -5.7060   29.3750 O   0  0  0  0  0  0  0  0  0  0  0  0
    5.7460   -4.9030   23.4040 C   0  0  0  0  0  0  0  0  0  0  0  0
    6.5770   -5.3940   22.3940 C   0  0  0  0  0  0  0  0  0  0  0  0
  1  2  1  0
  2  3  2  0
  2  4  1  0
  4  5  1  0
  5  6  1  0
  6  7  1  0
  7  8  1  0
  8  9  2  0
  8 10  1  0
 10 11  1  0
 11 12  1  0
 12 13  1  0
 13 14  1  0
 13 15  1  0
 13 16  1  0
 16 17  1  0
  7 18  1  0
  4 19  1  0
 18 19  1  0
M  END
