piperidine-amides-24360-covalent
     RDKit          3D

 24 26  0  0  0  0  0  0  0  0999 V2000
    7.1310   -3.3580   19.3800 C   0  0  0  0  0  0  0  0  0  0  0  0
    6.4150   -4.2100   20.3330 C   0  0  0  0  0  0  0  0  0  0  0  0
    5.3760   -4.8130   19.9810 O   0  0  0  0  0  0  0  0  0  0  0  0
    6.9390   -4.3960   21.6210 N   0  0  0  0  0  0  0  0  0  0  0  0
    6.6470   -5.6480   22.3030 C   0  0  0  0  0  0  0  0  0  0  0  0
    6.3210   -5.3110   23.7680 C   0  0  0  0  0  0  0  0  0  0  0  0
    6.1170   -3.8210   23.8060 C   0  0  0  0  0  0  0  0  0  0  0  0
    5.5250   -3.3460   25.0620 C   0  0  0  0  0  0  0  0  0  0  0  0
    4.5300   -2.6040   24.9730 O   0  0  0  0  0  0  0  0  0  0  0  0
    6.0070   -3.6980   26.3310 N   0  0  0  0  0  0  0  0  0  0  0  0
    5.3100   -4.8130   26.8990 C   0  0  0  0  0  0  0  0  0  0  0  0
    6.0920   -5.3910   28.0410 C   0  0  0  0  0  0  0  0  0  0  0  0
    6.5690   -4.4850   28.8830 C   0  0  0  0  0  0  0  0  0  0  0  0
    6.0450   -3.2520   28.6210 C   0  0  1  0  0  0  0  0  0  0  0  0
    6.0610   -2.2130   29.5620 C   0  0  0  0  0  0  0  0  0  0  0  0
    5.0960   -2.1020   30.5120 O   0  0  0  0  0  0  0  0  0  0  0  0
    7.0950   -1.3710   29.3760 N   0  0  0  0  0  0  0  0  0  0  0  0
    7.5340   -0.4670   30.3960 C   0  0  0  0  0  0  0  0  0  0  0  0
    7.1430    1.0010   30.3280 C   0  0  0  0  0  0  0  0  0  0  0  0
    6.8090    0.2870   31.4310 C   0  0  0  0  0  0  0  0  0  0  0  0
    6.0580    1.6350   31.2170 C   0  0  0  0  0  0  0  0  0  0  0  0
    6.2440   -2.7280   27.3700 C   0  0  0  0  0  0  0  0  0  0  0  0
    7.4150   -3.1460   23.5210 C   0  0  0  0  0  0  0  0  0  0  0  0
    7.7180   -3.3510   22.2190 C   0  0  0  0  0  0  0  0  0  0  0  0
  1  2  1  0
  2  3  2  0
  2  4  1  0
  4  5  1  0
  5  6  1  0
  6  7  1  0
  7  8  1  0
  8  9  2  0
  8 10  1  0
 10 11  1  0
 11 12  1  0
 12 13  1  0
 13 14  1  0
 14 15  1  1
 15 16  2  0
 15 17  1  0
 17 18  1  0
 18 19  1  0
 19 20  1  0
 19 21  1  0
 20 21  1  0
 10 22  1  0
 14 22  1  0
  7 23  1  0
  4 24  1  0
 23 24  1  0
M  END
