piperidine-amides-27578-covalent
     RDKit          3D

 25 25  0  0  0  0  0  0  0  0999 V2000
    7.0960   -3.2700   19.2080 C   0  0  0  0  0  0  0  0  0  0  0  0
    6.3440   -4.0140   20.2240 C   0  0  0  0  0  0  0  0  0  0  0  0
    5.2520   -4.5230   19.8650 O   0  0  0  0  0  0  0  0  0  0  0  0
    6.8580   -4.1860   21.5020 N   0  0  0  0  0  0  0  0  0  0  0  0
    7.6820   -3.1810   22.1340 C   0  0  0  0  0  0  0  0  0  0  0  0
    6.9770   -2.7180   23.3700 C   0  0  0  0  0  0  0  0  0  0  0  0
    6.5230   -3.8770   24.2150 C   0  0  0  0  0  0  0  0  0  0  0  0
    5.8630   -3.3780   25.4390 C   0  0  0  0  0  0  0  0  0  0  0  0
    4.6220   -3.2080   25.4110 O   0  0  0  0  0  0  0  0  0  0  0  0
    6.5770   -3.0920   26.6240 N   0  0  0  0  0  0  0  0  0  0  0  0
    6.8290   -1.7170   26.9760 C   0  0  0  0  0  0  0  0  0  0  0  0
    6.2410   -1.3670   28.3430 C   0  0  0  0  0  0  0  0  0  0  0  0
    5.1790   -0.5130   28.5430 C   0  0  0  0  0  0  0  0  0  0  0  0
    4.0130   -0.9360   29.2390 O   0  0  0  0  0  0  0  0  0  0  0  0
    5.3440    0.7430   28.0270 O   0  0  0  0  0  0  0  0  0  0  0  0
    5.5520    0.9640   26.6550 C   0  0  0  0  0  0  0  0  0  0  0  0
    7.4220   -4.1490   27.1060 C   0  0  0  0  0  0  0  0  0  0  0  0
    7.8990   -3.8290   28.3520 C   0  0  0  0  0  0  0  0  0  0  0  0
    6.7240   -5.3350   27.1910 C   0  0  0  0  0  0  0  0  0  0  0  0
    8.4130   -4.2130   26.1600 C   0  0  0  0  0  0  0  0  0  0  0  0
    8.7060   -3.0710   25.4480 O   0  0  0  0  0  0  0  0  0  0  0  0
    9.1500   -5.3260   25.8710 O   0  0  0  0  0  0  0  0  0  0  0  0
    9.3770   -6.2710   26.8690 C   0  0  0  0  0  0  0  0  0  0  0  0
    5.6170   -4.8310   23.4170 C   0  0  0  0  0  0  0  0  0  0  0  0
    6.4800   -5.3530   22.2830 C   0  0  0  0  0  0  0  0  0  0  0  0
  1  2  1  0
  2  3  2  0
  2  4  1  0
  4  5  1  0
  5  6  1  0
  6  7  1  0
  7  8  1  0
  8  9  2  0
  8 10  1  0
 10 11  1  0
 11 12  1  0
 12 13  1  0
 13 14  2  0
 13 15  1  0
 15 16  1  0
 10 17  1  0
 17 18  1  0
 17 19  1  0
 17 20  1  0
 20 21  2  0
 20 22  1  0
 22 23  1  0
  7 24  1  0
  4 25  1  0
 24 25  1  0
M  END
