piperidine-amides-26104-covalent
     RDKit          3D

 25 28  0  0  0  0  0  0  0  0999 V2000
    7.0460   -3.3620   19.3970 C   0  0  0  0  0  0  0  0  0  0  0  0
    6.3840   -4.2480   20.3550 C   0  0  0  0  0  0  0  0  0  0  0  0
    5.3660   -4.8510   19.9850 O   0  0  0  0  0  0  0  0  0  0  0  0
    6.8890   -4.4900   21.6540 N   0  0  0  0  0  0  0  0  0  0  0  0
    6.5700   -5.6820   22.3860 C   0  0  0  0  0  0  0  0  0  0  0  0
    5.7870   -5.1900   23.5740 C   0  0  0  0  0  0  0  0  0  0  0  0
    6.3670   -3.9470   24.2050 C   0  0  0  0  0  0  0  0  0  0  0  0
    5.4800   -3.3950   25.2790 C   0  0  0  0  0  0  0  0  0  0  0  0
    4.6190   -2.5240   24.9750 O   0  0  0  0  0  0  0  0  0  0  0  0
    5.4990   -3.7680   26.6570 N   0  0  0  0  0  0  0  0  0  0  0  0
    6.4450   -3.1330   27.5150 C   0  0  0  0  0  0  0  0  0  0  0  0
    6.8410   -4.2420   28.4000 C   0  0  0  0  0  0  0  0  0  0  0  0
    5.8000   -4.5700   29.3230 C   0  0  0  0  0  0  0  0  0  0  0  0
    4.5460   -4.9480   28.5860 C   0  0  1  0  0  0  0  0  0  0  0  0
    3.3670   -4.8620   29.5410 C   0  0  0  0  0  0  0  0  0  0  0  0
    2.2880   -5.8510   29.5270 N   0  0  0  0  0  0  0  0  0  0  0  0
    1.4010   -5.5540   30.4490 O   0  0  0  0  0  0  0  0  0  0  0  0
    1.9370   -4.4040   31.0090 C   0  0  0  0  0  0  0  0  0  0  0  0
    1.2790   -3.7790   32.0340 C   0  0  0  0  0  0  0  0  0  0  0  0
    1.9560   -3.0660   32.9080 C   0  0  0  0  0  0  0  0  0  0  0  0
    1.2800   -2.0870   32.1700 C   0  0  0  0  0  0  0  0  0  0  0  0
    3.0860   -3.9800   30.4940 N   0  0  0  0  0  0  0  0  0  0  0  0
    4.2690   -3.9930   27.4190 C   0  0  0  0  0  0  0  0  0  0  0  0
    6.6830   -2.9110   23.0990 C   0  0  0  0  0  0  0  0  0  0  0  0
    7.5220   -3.3880   22.3710 C   0  0  0  0  0  0  0  0  0  0  0  0
  1  2  1  0
  2  3  2  0
  2  4  1  0
  4  5  1  0
  5  6  1  0
  6  7  1  0
  7  8  1  0
  8  9  2  0
  8 10  1  0
 10 11  1  0
 11 12  1  0
 12 13  1  0
 13 14  1  0
 14 15  1  1
 15 16  2  0
 16 17  1  0
 17 18  1  0
 18 19  1  0
 19 20  1  0
 19 21  1  0
 20 21  1  0
 15 22  1  0
 18 22  2  0
 10 23  1  0
 14 23  1  0
  7 24  1  0
  4 25  1  0
 24 25  1  0
M  END
