piperidine-amides-17236-covalent
     RDKit          3D

 20 21  0  0  0  0  0  0  0  0999 V2000
    7.0880   -3.2800   19.2010 C   0  0  0  0  0  0  0  0  0  0  0  0
    6.3450   -4.0280   20.2300 C   0  0  0  0  0  0  0  0  0  0  0  0
    5.2560   -4.5350   19.8760 O   0  0  0  0  0  0  0  0  0  0  0  0
    6.8590   -4.2270   21.5330 N   0  0  0  0  0  0  0  0  0  0  0  0
    7.5070   -3.1380   22.1800 C   0  0  0  0  0  0  0  0  0  0  0  0
    7.0230   -2.8300   23.5270 C   0  0  0  0  0  0  0  0  0  0  0  0
    6.4800   -3.9680   24.3060 C   0  0  0  0  0  0  0  0  0  0  0  0
    5.7080   -3.4840   25.5080 C   0  0  0  0  0  0  0  0  0  0  0  0
    4.4900   -3.2110   25.4280 O   0  0  0  0  0  0  0  0  0  0  0  0
    6.3290   -3.3480   26.7610 N   0  0  0  0  0  0  0  0  0  0  0  0
    6.8660   -4.4120   27.5090 C   0  0  0  0  0  0  0  0  0  0  0  0
    8.2810   -4.6290   27.4360 C   0  0  0  0  0  0  0  0  0  0  0  0
    8.5470   -6.0730   27.0660 C   0  0  0  0  0  0  0  0  0  0  0  0
    7.9090   -6.7620   28.0630 O   0  0  0  0  0  0  0  0  0  0  0  0
    6.5100   -2.0340   27.3060 C   0  0  0  0  0  0  0  0  0  0  0  0
    7.6770   -1.9200   28.2810 C   0  0  0  0  0  0  0  0  0  0  0  0
    6.8350   -1.0320   29.1380 C   0  0  0  0  0  0  0  0  0  0  0  0
    5.6310   -1.6900   28.4490 C   0  0  0  0  0  0  0  0  0  0  0  0
    5.6720   -4.9580   23.4940 C   0  0  0  0  0  0  0  0  0  0  0  0
    6.5010   -5.3950   22.3020 C   0  0  0  0  0  0  0  0  0  0  0  0
  1  2  1  0
  2  3  2  0
  2  4  1  0
  4  5  1  0
  5  6  1  0
  6  7  1  0
  7  8  1  0
  8  9  2  0
  8 10  1  0
 10 11  1  0
 11 12  1  0
 12 13  1  0
 13 14  1  0
 10 15  1  0
 15 16  1  0
 16 17  1  0
 15 18  1  0
 17 18  1  0
  7 19  1  0
  4 20  1  0
 19 20  1  0
M  END
