piperidine-amides-8980-covalent
     RDKit          3D

 22 23  0  0  0  0  0  0  0  0999 V2000
    7.0900   -3.2710   19.2410 C   0  0  0  0  0  0  0  0  0  0  0  0
    6.3530   -4.0210   20.2580 C   0  0  0  0  0  0  0  0  0  0  0  0
    5.3220   -4.6340   19.9200 O   0  0  0  0  0  0  0  0  0  0  0  0
    6.7970   -4.1110   21.5870 N   0  0  0  0  0  0  0  0  0  0  0  0
    7.7070   -3.1430   22.1910 C   0  0  0  0  0  0  0  0  0  0  0  0
    7.3330   -3.0540   23.6520 C   0  0  0  0  0  0  0  0  0  0  0  0
    5.9010   -3.4340   23.8570 C   0  0  0  0  0  0  0  0  0  0  0  0
    5.3440   -3.1660   25.2220 C   0  0  0  0  0  0  0  0  0  0  0  0
    4.1230   -2.8660   25.3260 O   0  0  0  0  0  0  0  0  0  0  0  0
    6.0580   -3.2020   26.4500 N   0  0  0  0  0  0  0  0  0  0  0  0
    5.3080   -3.5440   27.7000 C   0  0  0  0  0  0  0  0  0  0  0  0
    5.3510   -5.0140   27.8460 C   0  0  2  0  0  0  0  0  0  0  0  0
    5.3960   -5.6030   29.1990 C   0  0  0  0  0  0  0  0  0  0  0  0
    6.6400   -5.2950   27.2570 C   0  0  0  0  0  0  0  0  0  0  0  0
    7.7620   -5.4560   28.2260 C   0  0  0  0  0  0  0  0  0  0  0  0
    9.0930   -5.6970   27.6730 C   0  0  0  0  0  0  0  0  0  0  0  0
    9.2400   -5.7560   26.3190 C   0  0  0  0  0  0  0  0  0  0  0  0
   10.4090   -5.9460   25.7640 F   0  0  0  0  0  0  0  0  0  0  0  0
    8.1820   -5.6150   25.4500 C   0  0  0  0  0  0  0  0  0  0  0  0
    6.8260   -5.3780   25.9440 C   0  0  0  0  0  0  0  0  0  0  0  0
    5.5480   -4.8490   23.4370 C   0  0  0  0  0  0  0  0  0  0  0  0
    6.5110   -5.2940   22.3590 C   0  0  0  0  0  0  0  0  0  0  0  0
  1  2  1  0
  2  3  2  0
  2  4  1  0
  4  5  1  0
  5  6  1  0
  6  7  1  0
  7  8  1  0
  8  9  2  0
  8 10  1  0
 10 11  1  0
 11 12  1  0
 12 13  1  1
 12 14  1  0
 14 15  2  0
 15 16  1  0
 16 17  2  0
 17 18  1  0
 17 19  1  0
 14 20  1  0
 19 20  2  0
  7 21  1  0
  4 22  1  0
 21 22  1  0
M  END
