piperidine-amides-14730-covalent
     RDKit          3D

 22 23  0  0  0  0  0  0  0  0999 V2000
    7.0810   -3.3500   19.3520 C   0  0  0  0  0  0  0  0  0  0  0  0
    6.3630   -4.1640   20.3290 C   0  0  0  0  0  0  0  0  0  0  0  0
    5.3340   -4.7560   19.9560 O   0  0  0  0  0  0  0  0  0  0  0  0
    6.8830   -4.3030   21.6370 N   0  0  0  0  0  0  0  0  0  0  0  0
    7.6180   -3.1970   22.1970 C   0  0  0  0  0  0  0  0  0  0  0  0
    7.4390   -3.1250   23.6870 C   0  0  0  0  0  0  0  0  0  0  0  0
    6.0640   -3.6630   24.0050 C   0  0  0  0  0  0  0  0  0  0  0  0
    5.6370   -3.2360   25.3720 C   0  0  0  0  0  0  0  0  0  0  0  0
    4.4340   -3.3140   25.6390 O   0  0  0  0  0  0  0  0  0  0  0  0
    6.6340   -2.7790   26.2170 N   0  0  0  0  0  0  0  0  0  0  0  0
    6.5120   -1.6180   27.0430 C   0  0  0  0  0  0  0  0  0  0  0  0
    7.0150   -1.5370   28.3460 C   0  0  0  0  0  0  0  0  0  0  0  0
    6.9110   -0.4260   29.1560 C   0  0  0  0  0  0  0  0  0  0  0  0
    6.2890    0.7700   28.7930 C   0  0  0  0  0  0  0  0  0  0  0  0
    6.1550    1.9020   29.5600 F   0  0  0  0  0  0  0  0  0  0  0  0
    5.7490    0.6810   27.3990 C   0  0  0  0  0  0  0  0  0  0  0  0
    5.1180    1.8250   26.9780 O   0  0  0  0  0  0  0  0  0  0  0  0
    3.7490    1.6530   27.2050 C   0  0  0  0  0  0  0  0  0  0  0  0
    5.8670   -0.4340   26.6110 C   0  0  0  0  0  0  0  0  0  0  0  0
    5.3720   -0.5070   25.3420 F   0  0  0  0  0  0  0  0  0  0  0  0
    6.0450   -5.1280   23.7820 C   0  0  0  0  0  0  0  0  0  0  0  0
    6.5530   -5.4960   22.3790 C   0  0  0  0  0  0  0  0  0  0  0  0
  1  2  1  0
  2  3  2  0
  2  4  1  0
  4  5  1  0
  5  6  1  0
  6  7  1  0
  7  8  1  0
  8  9  2  0
  8 10  1  0
 10 11  1  0
 11 12  2  0
 12 13  1  0
 13 14  2  0
 14 15  1  0
 14 16  1  0
 16 17  1  0
 17 18  1  0
 11 19  1  0
 16 19  2  0
 19 20  1  0
  7 21  1  0
  4 22  1  0
 21 22  1  0
M  END
