piperidine-amides-30759-covalent
     RDKit          3D

 27 28  0  0  0  0  0  0  0  0999 V2000
    7.0470   -3.3200   19.2780 C   0  0  0  0  0  0  0  0  0  0  0  0
    6.3410   -4.1090   20.2920 C   0  0  0  0  0  0  0  0  0  0  0  0
    5.3540   -4.7830   19.9600 O   0  0  0  0  0  0  0  0  0  0  0  0
    6.7880   -4.1470   21.6210 N   0  0  0  0  0  0  0  0  0  0  0  0
    7.7210   -3.1550   22.1210 C   0  0  0  0  0  0  0  0  0  0  0  0
    7.4850   -3.0180   23.5960 C   0  0  0  0  0  0  0  0  0  0  0  0
    6.1960   -3.6590   24.0050 C   0  0  0  0  0  0  0  0  0  0  0  0
    5.8670   -3.4680   25.4400 C   0  0  0  0  0  0  0  0  0  0  0  0
    4.7070   -3.7800   25.8500 O   0  0  0  0  0  0  0  0  0  0  0  0
    6.7460   -2.9040   26.4060 N   0  0  0  0  0  0  0  0  0  0  0  0
    7.4550   -3.7750   27.3900 C   0  0  0  0  0  0  0  0  0  0  0  0
    7.9530   -5.0380   26.8110 C   0  0  0  0  0  0  0  0  0  0  0  0
    8.8190   -5.7950   27.7190 C   0  0  0  0  0  0  0  0  0  0  0  0
    8.8620   -4.8150   25.6300 C   0  0  0  0  0  0  0  0  0  0  0  0
    7.1090   -5.8820   26.4270 O   0  0  0  0  0  0  0  0  0  0  0  0
    6.4840   -1.6110   27.0020 C   0  0  0  0  0  0  0  0  0  0  0  0
    6.9800   -1.4600   28.4010 C   0  0  0  0  0  0  0  0  0  0  0  0
    6.7830   -0.2820   29.0830 C   0  0  0  0  0  0  0  0  0  0  0  0
    7.2750   -0.1620   30.4480 N   0  0  0  0  0  0  0  0  0  0  0  0
    8.4230    0.5550   30.5950 O   0  0  0  0  0  0  0  0  0  0  0  0
    6.3880   -0.2020   31.4810 O   0  0  0  0  0  0  0  0  0  0  0  0
    6.1170    0.7630   28.4370 C   0  0  0  0  0  0  0  0  0  0  0  0
    5.6270    0.5870   27.0270 C   0  0  0  0  0  0  0  0  0  0  0  0
    5.8350   -0.6260   26.3510 N   0  0  0  0  0  0  0  0  0  0  0  0
    5.3910   -0.8190   25.0590 O   0  0  0  0  0  0  0  0  0  0  0  0
    6.0650   -5.1230   23.6760 C   0  0  0  0  0  0  0  0  0  0  0  0
    6.7090   -5.4040   22.3390 C   0  0  0  0  0  0  0  0  0  0  0  0
  1  2  1  0
  2  3  2  0
  2  4  1  0
  4  5  1  0
  5  6  1  0
  6  7  1  0
  7  8  1  0
  8  9  2  0
  8 10  1  0
 10 11  1  0
 11 12  1  0
 12 13  1  0
 12 14  1  0
 12 15  1  0
 10 16  1  0
 16 17  2  0
 17 18  1  0
 18 19  1  0
 19 20  2  0
 19 21  1  0
 18 22  2  0
 22 23  1  0
 16 24  1  0
 23 24  2  0
 24 25  1  0
  7 26  1  0
  4 27  1  0
 26 27  1  0
M  CHG  4  19   1  21  -1  24   1  25  -1
M  END
