piperidine-amides-13066-covalent
     RDKit          3D

 20 22  0  0  0  0  0  0  0  0999 V2000
    7.0660   -3.2920   19.2080 C   0  0  0  0  0  0  0  0  0  0  0  0
    6.3660   -4.0520   20.2720 C   0  0  0  0  0  0  0  0  0  0  0  0
    5.3200   -4.6350   19.9270 O   0  0  0  0  0  0  0  0  0  0  0  0
    6.8890   -4.1520   21.5760 N   0  0  0  0  0  0  0  0  0  0  0  0
    6.6020   -5.3050   22.3650 C   0  0  0  0  0  0  0  0  0  0  0  0
    6.0680   -4.9680   23.6850 C   0  0  0  0  0  0  0  0  0  0  0  0
    6.0660   -3.5140   23.9530 C   0  0  0  0  0  0  0  0  0  0  0  0
    5.6230   -3.1740   25.3300 C   0  0  0  0  0  0  0  0  0  0  0  0
    4.4260   -2.8860   25.4790 O   0  0  0  0  0  0  0  0  0  0  0  0
    6.4980   -3.1500   26.4330 N   0  0  0  0  0  0  0  0  0  0  0  0
    6.1720   -3.7340   27.7620 C   0  0  0  0  0  0  0  0  0  0  0  0
    5.1860   -4.8600   27.7070 C   0  0  2  0  0  0  0  0  0  0  0  0
    3.7570   -4.5690   27.6210 C   0  0  0  0  0  0  0  0  0  0  0  0
    3.2020   -5.7800   27.2760 C   0  0  0  0  0  0  0  0  0  0  0  0
    4.2320   -6.6960   27.2140 C   0  0  2  0  0  0  0  0  0  0  0  0
    4.7100   -6.9220   28.4740 C   0  0  0  0  0  0  0  0  0  0  0  0
    5.3800   -5.7850   28.9010 C   0  0  0  0  0  0  0  0  0  0  0  0
    5.3230   -5.9560   26.8640 C   0  0  0  0  0  0  0  0  0  0  0  0
    7.4030   -2.9280   23.6040 C   0  0  0  0  0  0  0  0  0  0  0  0
    7.7220   -3.1130   22.1690 C   0  0  0  0  0  0  0  0  0  0  0  0
  1  2  1  0
  2  3  2  0
  2  4  1  0
  4  5  1  0
  5  6  1  0
  6  7  1  0
  7  8  1  0
  8  9  2  0
  8 10  1  0
 10 11  1  0
 12 11  1  6
 12 13  1  0
 13 14  1  0
 15 14  1  1
 15 16  1  0
 12 17  1  0
 16 17  1  0
 12 18  1  0
 15 18  1  0
  7 19  1  0
  4 20  1  0
 19 20  1  0
M  END
