piperidine-amides-14228-covalent
     RDKit          3D

 24 25  0  0  0  0  0  0  0  0999 V2000
    7.1040   -3.2780   19.2590 C   0  0  0  0  0  0  0  0  0  0  0  0
    6.3570   -4.0660   20.2800 C   0  0  0  0  0  0  0  0  0  0  0  0
    5.3370   -4.6870   19.9370 O   0  0  0  0  0  0  0  0  0  0  0  0
    6.8560   -4.1160   21.6020 N   0  0  0  0  0  0  0  0  0  0  0  0
    7.7580   -3.0950   22.0960 C   0  0  0  0  0  0  0  0  0  0  0  0
    7.5720   -3.0340   23.6030 C   0  0  0  0  0  0  0  0  0  0  0  0
    6.1800   -3.5040   23.8070 C   0  0  0  0  0  0  0  0  0  0  0  0
    5.6440   -3.1600   25.1350 C   0  0  0  0  0  0  0  0  0  0  0  0
    4.4850   -2.7380   25.1740 O   0  0  0  0  0  0  0  0  0  0  0  0
    6.4290   -3.3040   26.2730 N   0  0  0  0  0  0  0  0  0  0  0  0
    5.9440   -3.6200   27.5560 C   0  0  2  0  0  0  0  0  0  0  0  0
    6.6910   -3.7990   28.6790 C   0  0  0  0  0  0  0  0  0  0  0  0
    5.0810   -4.8730   27.4870 C   0  0  0  0  0  0  0  0  0  0  0  0
    5.5640   -6.0460   28.0040 C   0  0  0  0  0  0  0  0  0  0  0  0
    4.8040   -7.2880   27.9870 C   0  0  0  0  0  0  0  0  0  0  0  0
    3.4170   -7.3420   27.3820 C   0  0  0  0  0  0  0  0  0  0  0  0
    2.9220   -6.0020   26.8150 C   0  0  0  0  0  0  0  0  0  0  0  0
    1.6920   -5.7900   26.2130 C   0  0  0  0  0  0  0  0  0  0  0  0
    1.5970   -5.0030   25.0960 F   0  0  0  0  0  0  0  0  0  0  0  0
    1.2270   -7.0520   25.7390 F   0  0  0  0  0  0  0  0  0  0  0  0
    0.7130   -5.4460   27.1720 F   0  0  0  0  0  0  0  0  0  0  0  0
    3.8160   -4.7870   26.9000 C   0  0  0  0  0  0  0  0  0  0  0  0
    5.9680   -4.9560   23.5180 C   0  0  0  0  0  0  0  0  0  0  0  0
    6.6900   -5.3070   22.4010 C   0  0  0  0  0  0  0  0  0  0  0  0
  1  2  1  0
  2  3  2  0
  2  4  1  0
  4  5  1  0
  5  6  1  0
  6  7  1  0
  7  8  1  0
  8  9  2  0
  8 10  1  0
 10 11  1  0
 11 12  1  1
 11 13  1  0
 13 14  2  0
 14 15  1  0
 15 16  2  0
 16 17  1  0
 17 18  1  0
 18 19  1  0
 18 20  1  0
 18 21  1  0
 13 22  1  0
 17 22  2  0
  7 23  1  0
  4 24  1  0
 23 24  1  0
M  END
