piperidine-amides-436-covalent
     RDKit          3D

 27 28  0  0  0  0  0  0  0  0999 V2000
    7.1810   -3.2910   19.3110 C   0  0  0  0  0  0  0  0  0  0  0  0
    6.4330   -4.0720   20.2700 C   0  0  0  0  0  0  0  0  0  0  0  0
    5.3410   -4.6090   19.9100 O   0  0  0  0  0  0  0  0  0  0  0  0
    6.9140   -4.2890   21.5760 N   0  0  0  0  0  0  0  0  0  0  0  0
    7.8510   -3.2970   22.1480 C   0  0  0  0  0  0  0  0  0  0  0  0
    6.8840   -2.6190   23.1680 C   0  0  0  0  0  0  0  0  0  0  0  0
    6.4990   -3.7500   24.0760 C   0  0  0  0  0  0  0  0  0  0  0  0
    5.7170   -3.1930   25.3310 C   0  0  0  0  0  0  0  0  0  0  0  0
    5.3390   -2.0470   25.1430 O   0  0  0  0  0  0  0  0  0  0  0  0
    5.6680   -4.0960   26.2140 N   0  0  0  0  0  0  0  0  0  0  0  0
    5.4870   -5.0110   27.2030 C   0  0  2  0  0  0  0  0  0  0  0  0
    6.1730   -5.9480   27.9110 C   0  0  0  0  0  0  0  0  0  0  0  0
    6.4630   -5.4130   29.1690 C   0  0  0  0  0  0  0  0  0  0  0  0
    6.7460   -4.0440   29.1790 O   0  0  0  0  0  0  0  0  0  0  0  0
    6.4230   -6.2240   30.3040 O   0  0  0  0  0  0  0  0  0  0  0  0
    5.8330   -7.4810   30.2930 C   0  0  0  0  0  0  0  0  0  0  0  0
    4.1070   -5.6480   27.1030 C   0  0  0  0  0  0  0  0  0  0  0  0
    3.9850   -6.8950   26.4390 C   0  0  0  0  0  0  0  0  0  0  0  0
    2.8930   -7.8140   26.1360 C   0  0  0  0  0  0  0  0  0  0  0  0
    1.7110   -7.0220   26.7910 C   0  0  0  0  0  0  0  0  0  0  0  0
    1.8100   -5.6650   27.5170 C   0  0  0  0  0  0  0  0  0  0  0  0
    0.5690   -5.1480   28.0300 N   0  0  0  0  0  0  0  0  0  0  0  0
    0.5600   -4.1130   28.7490 O   0  0  0  0  0  0  0  0  0  0  0  0
   -0.6330   -5.7510   27.7860 O   0  0  0  0  0  0  0  0  0  0  0  0
    2.9760   -5.0680   27.6310 C   0  0  0  0  0  0  0  0  0  0  0  0
    5.7920   -4.9270   23.4110 C   0  0  0  0  0  0  0  0  0  0  0  0
    6.4810   -5.4200   22.3480 C   0  0  0  0  0  0  0  0  0  0  0  0
  1  2  1  0
  2  3  2  0
  2  4  1  0
  4  5  1  0
  5  6  1  0
  6  7  1  0
  7  8  1  0
  8  9  2  0
  8 10  1  0
 10 11  1  0
 11 12  1  6
 12 13  1  0
 13 14  2  0
 13 15  1  0
 15 16  1  0
 11 17  1  0
 17 18  2  0
 18 19  1  0
 19 20  2  0
 20 21  1  0
 21 22  1  0
 22 23  2  0
 22 24  1  0
 17 25  1  0
 21 25  2  0
  7 26  1  0
  4 27  1  0
 26 27  1  0
M  CHG  2  22   1  24  -1
M  END
