piperidine-amides-14367-covalent
     RDKit          3D

 22 23  0  0  0  0  0  0  0  0999 V2000
    7.0330   -3.3310   19.3400 C   0  0  0  0  0  0  0  0  0  0  0  0
    6.3650   -4.1760   20.3300 C   0  0  0  0  0  0  0  0  0  0  0  0
    5.3550   -4.8030   19.9700 O   0  0  0  0  0  0  0  0  0  0  0  0
    6.8910   -4.3000   21.6430 N   0  0  0  0  0  0  0  0  0  0  0  0
    7.6390   -3.2010   22.1890 C   0  0  0  0  0  0  0  0  0  0  0  0
    7.5250   -3.2430   23.6730 C   0  0  0  0  0  0  0  0  0  0  0  0
    6.0970   -3.6480   23.9640 C   0  0  0  0  0  0  0  0  0  0  0  0
    5.7360   -3.2710   25.3670 C   0  0  0  0  0  0  0  0  0  0  0  0
    4.5970   -3.5390   25.7440 O   0  0  0  0  0  0  0  0  0  0  0  0
    6.7310   -2.6540   26.1090 N   0  0  0  0  0  0  0  0  0  0  0  0
    6.5600   -1.5470   27.0010 C   0  0  0  0  0  0  0  0  0  0  0  0
    7.0190   -1.5740   28.3090 C   0  0  0  0  0  0  0  0  0  0  0  0
    6.8680   -0.5100   29.1650 C   0  0  0  0  0  0  0  0  0  0  0  0
    6.2470    0.7050   28.8460 C   0  0  0  0  0  0  0  0  0  0  0  0
    5.7150    0.8120   27.4380 C   0  0  0  0  0  0  0  0  0  0  0  0
    5.8870   -0.3830   26.4720 C   0  0  0  0  0  0  0  0  0  0  0  0
    5.3450   -0.2280   25.0950 C   0  0  0  0  0  0  0  0  0  0  0  0
    4.9320    1.2150   25.0710 C   0  0  0  0  0  0  0  0  0  0  0  0
    6.2330   -0.5410   24.0940 C   0  0  0  0  0  0  0  0  0  0  0  0
    4.2780   -1.0980   24.9410 C   0  0  0  0  0  0  0  0  0  0  0  0
    6.0520   -5.1300   23.7700 C   0  0  0  0  0  0  0  0  0  0  0  0
    6.5430   -5.4960   22.3870 C   0  0  0  0  0  0  0  0  0  0  0  0
  1  2  1  0
  2  3  2  0
  2  4  1  0
  4  5  1  0
  5  6  1  0
  6  7  1  0
  7  8  1  0
  8  9  2  0
  8 10  1  0
 10 11  1  0
 11 12  2  0
 12 13  1  0
 13 14  2  0
 14 15  1  0
 11 16  1  0
 15 16  2  0
 16 17  1  0
 17 18  1  0
 17 19  1  0
 17 20  1  0
  7 21  1  0
  4 22  1  0
 21 22  1  0
M  END
