piperidine-amides-29452-covalent
     RDKit          3D

 24 26  0  0  0  0  0  0  0  0999 V2000
    7.0510   -3.3280   19.3440 C   0  0  0  0  0  0  0  0  0  0  0  0
    6.3860   -4.1760   20.3320 C   0  0  0  0  0  0  0  0  0  0  0  0
    5.3700   -4.7990   19.9710 O   0  0  0  0  0  0  0  0  0  0  0  0
    6.9140   -4.3290   21.6450 N   0  0  0  0  0  0  0  0  0  0  0  0
    6.6200   -5.5480   22.3460 C   0  0  0  0  0  0  0  0  0  0  0  0
    6.3390   -5.2780   23.8020 C   0  0  0  0  0  0  0  0  0  0  0  0
    6.1330   -3.7880   23.9860 C   0  0  0  0  0  0  0  0  0  0  0  0
    5.5890   -3.4150   25.3500 C   0  0  0  0  0  0  0  0  0  0  0  0
    4.4720   -2.9060   25.3150 O   0  0  0  0  0  0  0  0  0  0  0  0
    6.2880   -3.6270   26.5470 N   0  0  0  0  0  0  0  0  0  0  0  0
    6.3440   -2.5660   27.5070 C   0  0  0  0  0  0  0  0  0  0  0  0
    6.3490   -2.9660   28.8390 C   0  0  0  0  0  0  0  0  0  0  0  0
    5.3090   -3.7420   29.1510 C   0  0  0  0  0  0  0  0  0  0  0  0
    4.4820   -3.4690   30.2390 C   0  0  0  0  0  0  0  0  0  0  0  0
    3.3400   -4.4010   30.5060 C   0  0  0  0  0  0  0  0  0  0  0  0
    2.2870   -4.0750   31.8820 Cl  0  0  0  0  0  0  0  0  0  0  0  0
    3.1220   -5.6050   29.5760 C   0  0  0  0  0  0  0  0  0  0  0  0
    4.0180   -5.8400   28.4370 C   0  0  0  0  0  0  0  0  0  0  0  0
    3.7490   -7.2130   27.3680 Cl  0  0  0  0  0  0  0  0  0  0  0  0
    5.1030   -4.7940   28.3410 C   0  0  0  0  0  0  0  0  0  0  0  0
    6.0660   -4.9430   27.1820 C   0  0  1  0  0  0  0  0  0  0  0  0
    5.7400   -5.9320   26.3190 C   0  0  0  0  0  0  0  0  0  0  0  0
    7.4320   -3.1220   23.6860 C   0  0  0  0  0  0  0  0  0  0  0  0
    7.6830   -3.2330   22.2100 C   0  0  0  0  0  0  0  0  0  0  0  0
  1  2  1  0
  2  3  2  0
  2  4  1  0
  4  5  1  0
  5  6  1  0
  6  7  1  0
  7  8  1  0
  8  9  2  0
  8 10  1  0
 10 11  1  0
 11 12  1  0
 12 13  1  0
 13 14  2  0
 14 15  1  0
 15 16  1  0
 15 17  2  0
 17 18  1  0
 18 19  1  0
 13 20  1  0
 18 20  2  0
 10 21  1  0
 20 21  1  0
 21 22  1  6
  7 23  1  0
  4 24  1  0
 23 24  1  0
M  END
