piperidine-amides-6718-covalent
     RDKit          3D

 23 25  0  0  0  0  0  0  0  0999 V2000
    7.1030   -3.2860   19.2280 C   0  0  0  0  0  0  0  0  0  0  0  0
    6.3850   -4.0770   20.2360 C   0  0  0  0  0  0  0  0  0  0  0  0
    5.3220   -4.6640   19.9330 O   0  0  0  0  0  0  0  0  0  0  0  0
    6.9140   -4.2270   21.5300 N   0  0  0  0  0  0  0  0  0  0  0  0
    7.6660   -3.1350   22.1060 C   0  0  0  0  0  0  0  0  0  0  0  0
    6.8100   -2.6110   23.2530 C   0  0  0  0  0  0  0  0  0  0  0  0
    6.5520   -3.7930   24.1570 C   0  0  0  0  0  0  0  0  0  0  0  0
    5.7860   -3.3220   25.3250 C   0  0  0  0  0  0  0  0  0  0  0  0
    4.5370   -3.4060   25.2950 O   0  0  0  0  0  0  0  0  0  0  0  0
    6.4680   -2.7730   26.4350 N   0  0  0  0  0  0  0  0  0  0  0  0
    5.7120   -2.2600   27.5390 C   0  0  1  0  0  0  0  0  0  0  0  0
    6.1670   -2.9240   28.7650 C   0  0  0  0  0  0  0  0  0  0  0  0
    6.3740   -1.7040   29.2210 C   0  0  2  0  0  0  0  0  0  0  0  0
    5.6210   -1.2590   30.2810 C   0  0  0  0  0  0  0  0  0  0  0  0
    4.3760   -1.6870   30.6410 C   0  0  0  0  0  0  0  0  0  0  0  0
    3.6010   -1.2680   31.6890 C   0  0  0  0  0  0  0  0  0  0  0  0
    3.8740   -0.2090   32.7710 C   0  0  0  0  0  0  0  0  0  0  0  0
    5.2660    0.1750   32.2530 C   0  0  0  0  0  0  0  0  0  0  0  0
    6.0940   -0.3000   31.0980 C   0  0  0  0  0  0  0  0  0  0  0  0
    7.6880    0.3950   30.8140 Cl  0  0  0  0  0  0  0  0  0  0  0  0
    5.9830   -0.9490   28.0530 C   0  0  0  0  0  0  0  0  0  0  0  0
    5.7340   -4.8290   23.4300 C   0  0  0  0  0  0  0  0  0  0  0  0
    6.4290   -5.2890   22.3440 C   0  0  0  0  0  0  0  0  0  0  0  0
  1  2  1  0
  2  3  2  0
  2  4  1  0
  4  5  1  0
  5  6  1  0
  6  7  1  0
  7  8  1  0
  8  9  2  0
  8 10  1  0
 11 10  1  6
 11 12  1  0
 12 13  1  0
 13 14  1  1
 14 15  2  0
 15 16  1  0
 16 17  2  0
 17 18  1  0
 14 19  1  0
 18 19  2  0
 19 20  1  0
 11 21  1  0
 13 21  1  0
  7 22  1  0
  4 23  1  0
 22 23  1  0
M  END
