piperidine-amides-14934-covalent
     RDKit          3D

 21 22  0  0  0  0  0  0  0  0999 V2000
    7.1260   -3.2750   19.2370 C   0  0  0  0  0  0  0  0  0  0  0  0
    6.3940   -4.0680   20.2200 C   0  0  0  0  0  0  0  0  0  0  0  0
    5.3000   -4.5490   19.8870 O   0  0  0  0  0  0  0  0  0  0  0  0
    6.9580   -4.3290   21.4910 N   0  0  0  0  0  0  0  0  0  0  0  0
    7.6320   -3.2620   22.1720 C   0  0  0  0  0  0  0  0  0  0  0  0
    6.7620   -2.7720   23.2890 C   0  0  0  0  0  0  0  0  0  0  0  0
    6.6020   -3.9210   24.2610 C   0  0  0  0  0  0  0  0  0  0  0  0
    5.8580   -3.4670   25.4790 C   0  0  0  0  0  0  0  0  0  0  0  0
    4.7270   -3.9240   25.6320 O   0  0  0  0  0  0  0  0  0  0  0  0
    6.4810   -2.5790   26.3480 N   0  0  0  0  0  0  0  0  0  0  0  0
    6.3820   -1.1740   26.1540 C   0  0  0  0  0  0  0  0  0  0  0  0
    5.1880   -0.7800   25.5180 C   0  0  0  0  0  0  0  0  0  0  0  0
    5.4030   -0.5680   24.0610 N   0  0  0  0  0  0  0  0  0  0  0  0
    4.4480   -0.1800   23.1020 C   0  0  0  0  0  0  0  0  0  0  0  0
    4.5130    0.0390   21.7340 C   0  0  0  0  0  0  0  0  0  0  0  0
    3.0610    0.0280   23.7330 C   0  0  0  0  0  0  0  0  0  0  0  0
    2.8420   -0.1920   25.2380 C   0  0  0  0  0  0  0  0  0  0  0  0
    1.4710    0.0220   25.7520 C   0  0  0  0  0  0  0  0  0  0  0  0
    3.9070   -0.5630   25.9550 N   0  0  0  0  0  0  0  0  0  0  0  0
    5.9670   -5.1040   23.6170 C   0  0  0  0  0  0  0  0  0  0  0  0
    6.4450   -5.4630   22.2010 C   0  0  0  0  0  0  0  0  0  0  0  0
  1  2  1  0
  2  3  2  0
  2  4  1  0
  4  5  1  0
  5  6  1  0
  6  7  1  0
  7  8  1  0
  8  9  2  0
  8 10  1  0
 10 11  1  0
 11 12  1  0
 12 13  2  0
 13 14  1  0
 14 15  1  0
 14 16  2  0
 16 17  1  0
 17 18  1  0
 12 19  1  0
 17 19  2  0
  7 20  1  0
  4 21  1  0
 20 21  1  0
M  END
