piperidine-amides-911-covalent
     RDKit          3D

 24 25  0  0  0  0  0  0  0  0999 V2000
    7.1000   -3.2420   19.1800 C   0  0  0  0  0  0  0  0  0  0  0  0
    6.2930   -3.9990   20.1730 C   0  0  0  0  0  0  0  0  0  0  0  0
    5.2040   -4.4840   19.8440 O   0  0  0  0  0  0  0  0  0  0  0  0
    6.8280   -4.2110   21.4450 N   0  0  0  0  0  0  0  0  0  0  0  0
    7.6770   -3.2360   22.0860 C   0  0  0  0  0  0  0  0  0  0  0  0
    6.8570   -2.6520   23.2320 C   0  0  0  0  0  0  0  0  0  0  0  0
    6.5980   -3.8010   24.1380 C   0  0  0  0  0  0  0  0  0  0  0  0
    5.9990   -3.4000   25.4260 C   0  0  0  0  0  0  0  0  0  0  0  0
    4.7660   -3.2580   25.4610 O   0  0  0  0  0  0  0  0  0  0  0  0
    6.8490   -3.2030   26.5240 N   0  0  0  0  0  0  0  0  0  0  0  0
    7.7370   -4.1530   27.0980 C   0  0  0  0  0  0  0  0  0  0  0  0
    8.9810   -4.4950   26.6050 C   0  0  1  0  0  0  0  0  0  0  0  0
    9.7310   -5.4180   27.3310 C   0  0  0  0  0  0  0  0  0  0  0  0
    8.6790   -5.3080   25.4420 O   0  0  0  0  0  0  0  0  0  0  0  0
    9.8320   -3.3440   26.0580 C   0  0  1  0  0  0  0  0  0  0  0  0
   11.1840   -3.8490   25.6860 C   0  0  0  0  0  0  0  0  0  0  0  0
   12.0980   -2.9190   24.8450 C   0  0  0  0  0  0  0  0  0  0  0  0
   11.2610   -2.3960   23.6840 C   0  0  2  0  0  0  0  0  0  0  0  0
   11.8900   -1.5300   22.7960 C   0  0  0  0  0  0  0  0  0  0  0  0
   12.8670   -0.5140   23.2770 C   0  0  0  0  0  0  0  0  0  0  0  0
   10.0820   -1.6840   24.3540 C   0  0  0  0  0  0  0  0  0  0  0  0
    9.2240   -2.6100   24.9150 C   0  0  0  0  0  0  0  0  0  0  0  0
    5.7580   -4.8720   23.5120 C   0  0  0  0  0  0  0  0  0  0  0  0
    6.3980   -5.3580   22.2260 C   0  0  0  0  0  0  0  0  0  0  0  0
  1  2  1  0
  2  3  2  0
  2  4  1  0
  4  5  1  0
  5  6  1  0
  6  7  1  0
  7  8  1  0
  8  9  2  0
  8 10  1  0
 10 11  1  0
 11 12  1  0
 12 13  1  1
 12 14  1  0
 12 15  1  0
 15 16  1  6
 16 17  1  0
 17 18  1  0
 18 19  1  1
 19 20  1  0
 18 21  1  0
 15 22  1  0
 21 22  1  0
  7 23  1  0
  4 24  1  0
 23 24  1  0
M  END
