piperidine-amides-16184-covalent
     RDKit          3D

 19 20  0  0  0  0  0  0  0  0999 V2000
    7.0400   -3.3110   19.2640 C   0  0  0  0  0  0  0  0  0  0  0  0
    6.3370   -4.1350   20.2770 C   0  0  0  0  0  0  0  0  0  0  0  0
    5.2980   -4.6830   19.9260 O   0  0  0  0  0  0  0  0  0  0  0  0
    6.8780   -4.3140   21.5510 N   0  0  0  0  0  0  0  0  0  0  0  0
    7.6310   -3.2860   22.2300 C   0  0  0  0  0  0  0  0  0  0  0  0
    6.9140   -2.8760   23.4830 C   0  0  0  0  0  0  0  0  0  0  0  0
    6.5600   -4.1040   24.3270 C   0  0  0  0  0  0  0  0  0  0  0  0
    5.7960   -3.5970   25.4840 C   0  0  0  0  0  0  0  0  0  0  0  0
    4.5480   -3.5340   25.4540 O   0  0  0  0  0  0  0  0  0  0  0  0
    6.4660   -3.1560   26.6370 N   0  0  0  0  0  0  0  0  0  0  0  0
    7.8570   -3.4960   26.8060 C   0  0  0  0  0  0  0  0  0  0  0  0
    7.9750   -4.9250   27.3010 C   0  0  1  0  0  0  0  0  0  0  0  0
    9.0500   -5.7310   27.0330 C   0  0  0  0  0  0  0  0  0  0  0  0
    7.9410   -4.8610   28.6710 O   0  0  0  0  0  0  0  0  0  0  0  0
    6.0220   -1.9800   27.2990 C   0  0  0  0  0  0  0  0  0  0  0  0
    6.2950   -0.8180   26.8990 C   0  0  0  0  0  0  0  0  0  0  0  0
    7.0900   -0.9640   28.0090 C   0  0  0  0  0  0  0  0  0  0  0  0
    5.8170   -5.1410   23.5440 C   0  0  0  0  0  0  0  0  0  0  0  0
    6.5380   -5.5070   22.2850 C   0  0  0  0  0  0  0  0  0  0  0  0
  1  2  1  0
  2  3  2  0
  2  4  1  0
  4  5  1  0
  5  6  1  0
  6  7  1  0
  7  8  1  0
  8  9  2  0
  8 10  1  0
 10 11  1  0
 11 12  1  0
 12 13  1  1
 12 14  1  0
 10 15  1  0
 15 16  1  0
 15 17  1  0
 16 17  1  0
  7 18  1  0
  4 19  1  0
 18 19  1  0
M  END
