piperidine-amides-24857-covalent
     RDKit          3D

 24 25  0  0  0  0  0  0  0  0999 V2000
    7.1460   -3.3660   19.3140 C   0  0  0  0  0  0  0  0  0  0  0  0
    6.4310   -4.1940   20.2810 C   0  0  0  0  0  0  0  0  0  0  0  0
    5.3510   -4.7390   19.9640 O   0  0  0  0  0  0  0  0  0  0  0  0
    7.0040   -4.4440   21.5310 N   0  0  0  0  0  0  0  0  0  0  0  0
    6.5760   -5.6090   22.2410 C   0  0  0  0  0  0  0  0  0  0  0  0
    5.5960   -5.0570   23.2680 C   0  0  0  0  0  0  0  0  0  0  0  0
    6.3640   -4.0760   24.1300 C   0  0  0  0  0  0  0  0  0  0  0  0
    5.4010   -3.4410   25.0360 C   0  0  0  0  0  0  0  0  0  0  0  0
    4.4960   -2.7370   24.5540 O   0  0  0  0  0  0  0  0  0  0  0  0
    5.5140   -3.6470   26.4050 N   0  0  0  0  0  0  0  0  0  0  0  0
    4.3640   -3.8910   27.2520 C   0  0  0  0  0  0  0  0  0  0  0  0
    4.6910   -4.8930   28.3340 C   0  0  0  0  0  0  0  0  0  0  0  0
    5.6740   -4.5130   29.1290 C   0  0  0  0  0  0  0  0  0  0  0  0
    6.6750   -4.0650   28.4200 C   0  0  0  0  0  0  0  0  0  0  0  0
    6.3610   -3.1460   27.4370 C   0  0  2  0  0  0  0  0  0  0  0  0
    5.7250   -1.9570   27.7680 C   0  0  0  0  0  0  0  0  0  0  0  0
    4.4060   -1.6910   27.6180 O   0  0  0  0  0  0  0  0  0  0  0  0
    6.5330   -0.9620   28.2840 O   0  0  0  0  0  0  0  0  0  0  0  0
    6.4310   -0.5470   29.6360 C   0  0  0  0  0  0  0  0  0  0  0  0
    7.7500   -0.5870   30.3710 C   0  0  0  0  0  0  0  0  0  0  0  0
    5.4080    0.4140   30.0520 C   0  0  0  0  0  0  0  0  0  0  0  0
    5.3430   -1.0080   30.4550 C   0  0  0  0  0  0  0  0  0  0  0  0
    7.0040   -2.9650   23.3380 C   0  0  0  0  0  0  0  0  0  0  0  0
    7.6490   -3.3760   22.2150 C   0  0  0  0  0  0  0  0  0  0  0  0
  1  2  1  0
  2  3  2  0
  2  4  1  0
  4  5  1  0
  5  6  1  0
  6  7  1  0
  7  8  1  0
  8  9  2  0
  8 10  1  0
 10 11  1  0
 11 12  1  0
 12 13  1  0
 13 14  1  0
 10 15  1  0
 14 15  1  0
 15 16  1  1
 16 17  2  0
 16 18  1  0
 19 18  1  0
 19 20  1  0
 19 21  1  0
 19 22  1  0
  7 23  1  0
  4 24  1  0
 23 24  1  0
M  END
