piperidine-amides-28091-covalent
     RDKit          3D

 26 28  0  0  0  0  0  0  0  0999 V2000
    7.0480   -3.3760   19.3910 C   0  0  0  0  0  0  0  0  0  0  0  0
    6.4240   -4.2670   20.3920 C   0  0  0  0  0  0  0  0  0  0  0  0
    5.4210   -4.9060   20.0010 O   0  0  0  0  0  0  0  0  0  0  0  0
    6.9690   -4.4050   21.6840 N   0  0  0  0  0  0  0  0  0  0  0  0
    6.6550   -5.5640   22.4730 C   0  0  0  0  0  0  0  0  0  0  0  0
    6.0570   -5.2250   23.7670 C   0  0  0  0  0  0  0  0  0  0  0  0
    5.9850   -3.7660   23.9340 C   0  0  0  0  0  0  0  0  0  0  0  0
    5.1700   -3.2570   25.0820 C   0  0  0  0  0  0  0  0  0  0  0  0
    4.3730   -2.3590   24.7860 O   0  0  0  0  0  0  0  0  0  0  0  0
    5.1750   -3.6520   26.4370 N   0  0  0  0  0  0  0  0  0  0  0  0
    4.6680   -2.6820   27.4080 C   0  0  0  0  0  0  0  0  0  0  0  0
    4.7890   -3.2300   28.7570 C   0  0  0  0  0  0  0  0  0  0  0  0
    6.0670   -3.7350   29.1320 C   0  0  0  0  0  0  0  0  0  0  0  0
    5.8900   -5.1450   29.1410 N   0  0  0  0  0  0  0  0  0  0  0  0
    5.1580   -5.7850   30.1730 C   0  0  0  0  0  0  0  0  0  0  0  0
    5.5980   -6.9380   30.8060 C   0  0  0  0  0  0  0  0  0  0  0  0
    4.8790   -7.5210   31.8190 C   0  0  0  0  0  0  0  0  0  0  0  0
    3.6930   -6.9870   32.2390 C   0  0  0  0  0  0  0  0  0  0  0  0
    3.1210   -7.5880   33.1650 O   0  0  0  0  0  0  0  0  0  0  0  0
    2.9570   -8.9010   32.8900 C   0  0  0  0  0  0  0  0  0  0  0  0
    3.1880   -5.8480   31.6520 C   0  0  0  0  0  0  0  0  0  0  0  0
    3.9630   -5.2280   30.5730 C   0  0  0  0  0  0  0  0  0  0  0  0
    6.0170   -5.7170   27.8600 C   0  0  0  0  0  0  0  0  0  0  0  0
    6.1280   -4.6400   26.8020 C   0  0  0  0  0  0  0  0  0  0  0  0
    7.2350   -3.0480   23.6900 C   0  0  0  0  0  0  0  0  0  0  0  0
    7.7570   -3.3280   22.2990 C   0  0  0  0  0  0  0  0  0  0  0  0
  1  2  1  0
  2  3  2  0
  2  4  1  0
  4  5  1  0
  5  6  1  0
  6  7  1  0
  7  8  1  0
  8  9  2  0
  8 10  1  0
 10 11  1  0
 11 12  1  0
 12 13  1  0
 13 14  1  0
 14 15  1  0
 15 16  2  0
 16 17  1  0
 17 18  2  0
 18 19  1  0
 19 20  1  0
 18 21  1  0
 15 22  1  0
 21 22  2  0
 14 23  1  0
 10 24  1  0
 23 24  1  0
  7 25  1  0
  4 26  1  0
 25 26  1  0
M  END
