piperidine-amides-13381-covalent
     RDKit          3D

 23 24  0  0  0  0  0  0  0  0999 V2000
    7.1060   -3.2680   19.2470 C   0  0  0  0  0  0  0  0  0  0  0  0
    6.3660   -4.0420   20.2640 C   0  0  0  0  0  0  0  0  0  0  0  0
    5.2900   -4.5550   19.8900 O   0  0  0  0  0  0  0  0  0  0  0  0
    6.8770   -4.2310   21.5590 N   0  0  0  0  0  0  0  0  0  0  0  0
    7.6530   -3.2070   22.1760 C   0  0  0  0  0  0  0  0  0  0  0  0
    7.2650   -2.9540   23.5550 C   0  0  0  0  0  0  0  0  0  0  0  0
    6.0060   -3.6300   23.9270 C   0  0  0  0  0  0  0  0  0  0  0  0
    5.6060   -3.3380   25.3240 C   0  0  0  0  0  0  0  0  0  0  0  0
    4.3930   -3.4050   25.6020 O   0  0  0  0  0  0  0  0  0  0  0  0
    6.5440   -2.9940   26.3080 N   0  0  0  0  0  0  0  0  0  0  0  0
    6.2060   -2.9350   27.7480 C   0  0  0  0  0  0  0  0  0  0  0  0
    6.1090   -1.5080   28.2010 C   0  0  0  0  0  0  0  0  0  0  0  0
    6.9100   -0.7330   27.4410 F   0  0  0  0  0  0  0  0  0  0  0  0
    6.4410   -1.2470   29.6250 C   0  0  0  0  0  0  0  0  0  0  0  0
    5.1420   -0.6200   29.7660 N   0  0  0  0  0  0  0  0  0  0  0  0
    4.8650    0.7460   30.0560 C   0  0  0  0  0  0  0  0  0  0  0  0
    5.3520    1.1800   31.1130 O   0  0  0  0  0  0  0  0  0  0  0  0
    4.1020    1.5020   29.1890 C   0  0  0  0  0  0  0  0  0  0  0  0
    4.9380    2.2560   28.4170 C   0  0  0  0  0  0  0  0  0  0  0  0
    3.0990    2.0340   30.1660 C   0  0  0  0  0  0  0  0  0  0  0  0
    4.8510   -0.9220   28.3580 C   0  0  0  0  0  0  0  0  0  0  0  0
    6.0670   -5.1110   23.6530 C   0  0  0  0  0  0  0  0  0  0  0  0
    6.6460   -5.4420   22.3250 C   0  0  0  0  0  0  0  0  0  0  0  0
  1  2  1  0
  2  3  2  0
  2  4  1  0
  4  5  1  0
  5  6  1  0
  6  7  1  0
  7  8  1  0
  8  9  2  0
  8 10  1  0
 10 11  1  0
 11 12  1  0
 12 13  1  0
 12 14  1  0
 14 15  1  0
 15 16  1  0
 16 17  2  0
 16 18  1  0
 18 19  1  0
 18 20  1  0
 12 21  1  0
 15 21  1  0
  7 22  1  0
  4 23  1  0
 22 23  1  0
M  END
