piperidine-amides-12006-covalent
     RDKit          3D

 26 27  0  0  0  0  0  0  0  0999 V2000
    7.0660   -3.3490   19.2880 C   0  0  0  0  0  0  0  0  0  0  0  0
    6.3880   -4.1700   20.2820 C   0  0  0  0  0  0  0  0  0  0  0  0
    5.3600   -4.7750   19.9700 O   0  0  0  0  0  0  0  0  0  0  0  0
    6.9520   -4.3190   21.5960 N   0  0  0  0  0  0  0  0  0  0  0  0
    7.6930   -3.2290   22.1800 C   0  0  0  0  0  0  0  0  0  0  0  0
    6.9100   -2.6410   23.3080 C   0  0  0  0  0  0  0  0  0  0  0  0
    6.5480   -3.7680   24.2510 C   0  0  0  0  0  0  0  0  0  0  0  0
    5.7860   -3.2130   25.4000 C   0  0  0  0  0  0  0  0  0  0  0  0
    4.5870   -2.8870   25.3140 O   0  0  0  0  0  0  0  0  0  0  0  0
    6.4520   -3.0620   26.6320 N   0  0  0  0  0  0  0  0  0  0  0  0
    6.4270   -1.7830   27.3150 C   0  0  0  0  0  0  0  0  0  0  0  0
    5.7470   -0.6350   26.6220 C   0  0  0  0  0  0  0  0  0  0  0  0
    5.6960    0.6000   27.2550 C   0  0  0  0  0  0  0  0  0  0  0  0
    6.2820    0.7410   28.5290 C   0  0  0  0  0  0  0  0  0  0  0  0
    6.3000    1.9040   29.2780 C   0  0  0  0  0  0  0  0  0  0  0  0
    7.0680    2.8220   28.9410 O   0  0  0  0  0  0  0  0  0  0  0  0
    5.4340    2.0690   30.4050 N   0  0  0  0  0  0  0  0  0  0  0  0
    4.6550    3.2570   30.5860 C   0  0  0  0  0  0  0  0  0  0  0  0
    4.3720    3.1440   31.9270 C   0  0  0  0  0  0  0  0  0  0  0  0
    4.6390    0.8720   30.4540 C   0  0  0  0  0  0  0  0  0  0  0  0
    3.7530    0.7830   29.3830 C   0  0  0  0  0  0  0  0  0  0  0  0
    6.9250   -0.3010   29.1980 C   0  0  0  0  0  0  0  0  0  0  0  0
    7.6180    0.0110   30.7900 Cl  0  0  0  0  0  0  0  0  0  0  0  0
    6.9790   -1.5290   28.5710 C   0  0  0  0  0  0  0  0  0  0  0  0
    5.7200   -4.8330   23.5770 C   0  0  0  0  0  0  0  0  0  0  0  0
    6.4710   -5.3760   22.4080 C   0  0  0  0  0  0  0  0  0  0  0  0
  1  2  1  0
  2  3  2  0
  2  4  1  0
  4  5  1  0
  5  6  1  0
  6  7  1  0
  7  8  1  0
  8  9  2  0
  8 10  1  0
 10 11  1  0
 11 12  2  0
 12 13  1  0
 13 14  2  0
 14 15  1  0
 15 16  2  0
 15 17  1  0
 17 18  1  0
 18 19  1  0
 17 20  1  0
 20 21  1  0
 14 22  1  0
 22 23  1  0
 11 24  1  0
 22 24  2  0
  7 25  1  0
  4 26  1  0
 25 26  1  0
M  END
