piperidine-amides-11989-covalent
     RDKit          3D

 26 28  0  0  0  0  0  0  0  0999 V2000
    7.0670   -3.1340   19.1470 C   0  0  0  0  0  0  0  0  0  0  0  0
    6.2520   -3.7270   20.2060 C   0  0  0  0  0  0  0  0  0  0  0  0
    5.3660   -4.5360   19.9020 O   0  0  0  0  0  0  0  0  0  0  0  0
    6.4720   -3.3670   21.5960 N   0  0  0  0  0  0  0  0  0  0  0  0
    5.6350   -3.9390   22.6030 C   0  0  0  0  0  0  0  0  0  0  0  0
    4.8240   -2.9030   23.3520 C   0  0  0  0  0  0  0  0  0  0  0  0
    5.6370   -1.7130   23.8790 C   0  0  0  0  0  0  0  0  0  0  0  0
    5.3150   -1.5130   25.3860 C   0  0  0  0  0  0  0  0  0  0  0  0
    4.5100   -2.3340   25.8960 O   0  0  0  0  0  0  0  0  0  0  0  0
    5.8110   -0.3960   26.2790 N   0  0  0  0  0  0  0  0  0  0  0  0
    6.0450   -0.7260   27.7240 C   0  0  0  0  0  0  0  0  0  0  0  0
    6.0750   -1.9850   27.1820 C   0  0  0  0  0  0  0  0  0  0  0  0
    6.7280   -1.7940   26.0410 C   0  0  0  0  0  0  0  0  0  0  0  0
    6.8830   -2.7770   25.2200 C   0  0  0  0  0  0  0  0  0  0  0  0
    6.4010   -3.9670   25.5060 C   0  0  0  0  0  0  0  0  0  0  0  0
    6.6870   -4.7550   24.4900 N   0  0  0  0  0  0  0  0  0  0  0  0
    5.9270   -5.7800   24.2980 N   0  0  0  0  0  0  0  0  0  0  0  0
    6.4630   -6.3580   23.1710 C   0  0  0  0  0  0  0  0  0  0  0  0
    6.1230   -7.3690   22.5480 C   0  0  0  0  0  0  0  0  0  0  0  0
    7.4470   -5.6320   22.8410 C   0  0  0  0  0  0  0  0  0  0  0  0
    7.6940   -4.5940   23.6030 C   0  0  0  0  0  0  0  0  0  0  0  0
    8.7710   -3.5910   23.4510 C   0  0  0  0  0  0  0  0  0  0  0  0
    5.7430   -4.2270   26.6890 C   0  0  0  0  0  0  0  0  0  0  0  0
    5.5750   -3.1940   27.5630 C   0  0  0  0  0  0  0  0  0  0  0  0
    7.0990   -1.9270   23.5040 C   0  0  0  0  0  0  0  0  0  0  0  0
    7.2530   -2.2050   21.9720 C   0  0  0  0  0  0  0  0  0  0  0  0
  1  2  1  0
  2  3  2  0
  2  4  1  0
  4  5  1  0
  5  6  1  0
  6  7  1  0
  7  8  1  0
  8  9  2  0
  8 10  1  0
 10 11  1  0
 11 12  1  0
 12 13  2  0
 13 14  1  0
 14 15  2  0
 15 16  1  0
 16 17  1  0
 17 18  2  0
 18 19  1  0
 18 20  1  0
 16 21  1  0
 20 21  2  0
 21 22  1  0
 15 23  1  0
 12 24  1  0
 23 24  2  0
  7 25  1  0
  4 26  1  0
 25 26  1  0
M  END
