piperidine-amides-10894-covalent
     RDKit          3D

 22 22  0  0  0  0  0  0  0  0999 V2000
    7.1050   -3.2920   19.1890 C   0  0  0  0  0  0  0  0  0  0  0  0
    6.3750   -4.0410   20.2130 C   0  0  0  0  0  0  0  0  0  0  0  0
    5.3180   -4.6190   19.9130 O   0  0  0  0  0  0  0  0  0  0  0  0
    6.8890   -4.1540   21.5130 N   0  0  0  0  0  0  0  0  0  0  0  0
    7.7200   -3.1300   22.0950 C   0  0  0  0  0  0  0  0  0  0  0  0
    6.9320   -2.6500   23.2710 C   0  0  0  0  0  0  0  0  0  0  0  0
    6.6360   -3.7820   24.2040 C   0  0  0  0  0  0  0  0  0  0  0  0
    5.8950   -3.3310   25.3980 C   0  0  0  0  0  0  0  0  0  0  0  0
    4.7250   -2.8540   25.2860 O   0  0  0  0  0  0  0  0  0  0  0  0
    6.4420   -3.4100   26.6920 N   0  0  0  0  0  0  0  0  0  0  0  0
    6.7890   -4.7340   27.2540 C   0  0  0  0  0  0  0  0  0  0  0  0
    5.5820   -5.5760   27.1460 C   0  0  0  0  0  0  0  0  0  0  0  0
    5.2670   -6.0890   28.3400 N   0  0  0  0  0  0  0  0  0  0  0  0
    6.2320   -6.4390   29.3110 C   0  0  0  0  0  0  0  0  0  0  0  0
    5.7700   -7.6080   30.1300 C   0  0  0  0  0  0  0  0  0  0  0  0
    4.2260   -7.1160   28.1890 C   0  0  0  0  0  0  0  0  0  0  0  0
    2.9250   -6.6510   28.7440 C   0  0  0  0  0  0  0  0  0  0  0  0
    3.1010   -5.5150   29.5300 F   0  0  0  0  0  0  0  0  0  0  0  0
    1.9710   -6.4310   27.7940 F   0  0  0  0  0  0  0  0  0  0  0  0
    2.3420   -7.6080   29.5610 F   0  0  0  0  0  0  0  0  0  0  0  0
    5.8620   -4.8520   23.4570 C   0  0  0  0  0  0  0  0  0  0  0  0
    6.5330   -5.3030   22.3080 C   0  0  0  0  0  0  0  0  0  0  0  0
  1  2  1  0
  2  3  2  0
  2  4  1  0
  4  5  1  0
  5  6  1  0
  6  7  1  0
  7  8  1  0
  8  9  2  0
  8 10  1  0
 10 11  1  0
 11 12  1  0
 12 13  1  0
 13 14  1  0
 14 15  1  0
 13 16  1  0
 16 17  1  0
 17 18  1  0
 17 19  1  0
 17 20  1  0
  7 21  1  0
  4 22  1  0
 21 22  1  0
M  END
