piperidine-amides-35094-covalent
     RDKit          3D

 31 34  0  0  0  0  0  0  0  0999 V2000
    7.0240   -3.3640   19.3600 C   0  0  0  0  0  0  0  0  0  0  0  0
    6.3870   -4.2510   20.3630 C   0  0  0  0  0  0  0  0  0  0  0  0
    5.3960   -4.8790   19.9910 O   0  0  0  0  0  0  0  0  0  0  0  0
    6.9360   -4.3840   21.6480 N   0  0  0  0  0  0  0  0  0  0  0  0
    7.6230   -3.2920   22.2750 C   0  0  0  0  0  0  0  0  0  0  0  0
    6.7570   -2.7690   23.3860 C   0  0  0  0  0  0  0  0  0  0  0  0
    6.4370   -3.8890   24.3830 C   0  0  0  0  0  0  0  0  0  0  0  0
    5.5680   -3.2990   25.4530 C   0  0  0  0  0  0  0  0  0  0  0  0
    4.9170   -2.2960   25.1510 O   0  0  0  0  0  0  0  0  0  0  0  0
    5.3980   -3.8060   26.7820 N   0  0  0  0  0  0  0  0  0  0  0  0
    6.3690   -3.5350   27.7790 C   0  0  0  0  0  0  0  0  0  0  0  0
    6.7150   -4.8650   28.4370 C   0  0  0  0  0  0  0  0  0  0  0  0
    5.8750   -5.5430   29.2140 C   0  0  0  0  0  0  0  0  0  0  0  0
    4.5730   -5.1380   29.4710 N   0  0  0  0  0  0  0  0  0  0  0  0
    3.9250   -6.5240   30.2660 S   0  0  0  0  0  0  0  0  0  0  0  0
    3.0500   -6.0280   31.3700 O   0  0  0  0  0  0  0  0  0  0  0  0
    5.0280   -7.3770   30.8300 O   0  0  0  0  0  0  0  0  0  0  0  0
    2.8270   -7.4910   29.1920 C   0  0  0  0  0  0  0  0  0  0  0  0
    1.8480   -8.2250   29.7420 C   0  0  0  0  0  0  0  0  0  0  0  0
    0.8640   -9.0680   28.9600 C   0  0  0  0  0  0  0  0  0  0  0  0
    1.0580   -9.0290   27.4480 C   0  0  0  0  0  0  0  0  0  0  0  0
    2.1810   -8.1850   26.8630 C   0  0  0  0  0  0  0  0  0  0  0  0
    3.0170   -7.4480   27.8480 C   0  0  0  0  0  0  0  0  0  0  0  0
    2.3600   -8.1440   25.4920 O   0  0  0  0  0  0  0  0  0  0  0  0
    1.3560   -8.6660   24.6240 C   0  0  0  0  0  0  0  0  0  0  0  0
    0.7810   -9.9480   25.2310 C   0  0  0  0  0  0  0  0  0  0  0  0
    0.2750   -9.7190   26.5190 O   0  0  0  0  0  0  0  0  0  0  0  0
    3.8320   -4.8680   28.2750 C   0  0  0  0  0  0  0  0  0  0  0  0
    4.2090   -3.5880   27.5690 C   0  0  0  0  0  0  0  0  0  0  0  0
    5.7250   -5.0100   23.6510 C   0  0  0  0  0  0  0  0  0  0  0  0
    6.4950   -5.4930   22.4370 C   0  0  0  0  0  0  0  0  0  0  0  0
  1  2  1  0
  2  3  2  0
  2  4  1  0
  4  5  1  0
  5  6  1  0
  6  7  1  0
  7  8  1  0
  8  9  2  0
  8 10  1  0
 10 11  1  0
 11 12  1  0
 12 13  1  0
 13 14  1  0
 14 15  1  0
 15 16  2  0
 15 17  2  0
 15 18  1  0
 18 19  2  0
 19 20  1  0
 20 21  2  0
 21 22  1  0
 18 23  1  0
 22 23  2  0
 22 24  1  0
 24 25  1  0
 25 26  1  0
 21 27  1  0
 26 27  1  0
 14 28  1  0
 10 29  1  0
 28 29  1  0
  7 30  1  0
  4 31  1  0
 30 31  1  0
M  END
