piperidine-amides-19440-covalent
     RDKit          3D

 22 24  0  0  0  0  0  0  0  0999 V2000
    7.0600   -3.4270   19.3660 C   0  0  0  0  0  0  0  0  0  0  0  0
    6.4340   -4.2570   20.3650 C   0  0  0  0  0  0  0  0  0  0  0  0
    5.3940   -4.8930   20.0070 O   0  0  0  0  0  0  0  0  0  0  0  0
    6.9710   -4.4440   21.6700 N   0  0  0  0  0  0  0  0  0  0  0  0
    6.4870   -5.5850   22.4510 C   0  0  0  0  0  0  0  0  0  0  0  0
    5.3790   -4.8380   23.2860 C   0  0  0  0  0  0  0  0  0  0  0  0
    6.0560   -3.7100   24.0490 C   0  0  0  0  0  0  0  0  0  0  0  0
    5.0400   -3.0690   25.1130 C   0  0  0  0  0  0  0  0  0  0  0  0
    4.0210   -2.6700   24.5850 O   0  0  0  0  0  0  0  0  0  0  0  0
    5.5910   -3.1680   26.2250 N   0  0  0  0  0  0  0  0  0  0  0  0
    6.4730   -3.4020   27.0530 C   0  0  0  0  0  0  0  0  0  0  0  0
    6.4510   -4.4960   27.7820 C   0  0  0  0  0  0  0  0  0  0  0  0
    6.4360   -4.7030   29.1250 C   0  0  0  0  0  0  0  0  0  0  0  0
    6.3950   -6.0100   29.5580 N   0  0  0  0  0  0  0  0  0  0  0  0
    6.3850   -6.7620   28.4150 N   0  0  0  0  0  0  0  0  0  0  0  0
    6.4140   -5.9000   27.4120 C   0  0  0  0  0  0  0  0  0  0  0  0
    6.3980   -4.9790   28.6390 C   0  0  0  0  0  0  0  0  0  0  0  0
    5.0590   -4.5910   28.2160 C   0  0  1  0  0  0  0  0  0  0  0  0
    4.3680   -3.5910   28.9330 C   0  0  0  0  0  0  0  0  0  0  0  0
    4.7540   -3.2890   27.4080 C   0  0  0  0  0  0  0  0  0  0  0  0
    6.8190   -2.7540   23.1720 C   0  0  0  0  0  0  0  0  0  0  0  0
    7.6970   -3.4200   22.3540 C   0  0  0  0  0  0  0  0  0  0  0  0
  1  2  1  0
  2  3  2  0
  2  4  1  0
  4  5  1  0
  5  6  1  0
  6  7  1  0
  7  8  1  0
  8  9  2  0
  8 10  1  0
 10 11  1  0
 11 12  1  0
 12 13  1  0
 13 14  2  0
 14 15  1  0
 12 16  2  0
 15 16  1  0
 16 17  1  0
 17 18  1  0
 18 19  1  1
 10 20  1  0
 18 20  1  0
  7 21  1  0
  4 22  1  0
 21 22  1  0
M  END
