piperidine-amides-2409-covalent
     RDKit          3D

 27 29  0  0  0  0  0  0  0  0999 V2000
    7.1300   -3.2560   19.2340 C   0  0  0  0  0  0  0  0  0  0  0  0
    6.3830   -4.0470   20.2440 C   0  0  0  0  0  0  0  0  0  0  0  0
    5.3200   -4.5530   19.8910 O   0  0  0  0  0  0  0  0  0  0  0  0
    6.9200   -4.2330   21.5200 N   0  0  0  0  0  0  0  0  0  0  0  0
    7.7310   -3.2420   22.1780 C   0  0  0  0  0  0  0  0  0  0  0  0
    6.9880   -2.6560   23.3440 C   0  0  0  0  0  0  0  0  0  0  0  0
    6.3810   -3.7690   24.2050 C   0  0  0  0  0  0  0  0  0  0  0  0
    5.6230   -3.0850   25.2760 C   0  0  0  0  0  0  0  0  0  0  0  0
    4.4250   -2.8220   25.1030 O   0  0  0  0  0  0  0  0  0  0  0  0
    6.2370   -2.7360   26.4930 N   0  0  0  0  0  0  0  0  0  0  0  0
    6.5300   -3.8120   27.3940 C   0  0  2  0  0  0  0  0  0  0  0  0
    7.8050   -4.4040   26.8920 C   0  0  0  0  0  0  0  0  0  0  0  0
    8.5460   -3.5740   26.0680 C   0  0  0  0  0  0  0  0  0  0  0  0
    9.6930   -3.8900   25.5410 C   0  0  0  0  0  0  0  0  0  0  0  0
   10.1150   -5.0820   25.8360 C   0  0  0  0  0  0  0  0  0  0  0  0
    9.4360   -6.0860   26.6840 C   0  0  0  0  0  0  0  0  0  0  0  0
    8.1070   -5.8030   27.3490 C   0  0  0  0  0  0  0  0  0  0  0  0
    5.4670   -4.9050   27.2540 C   0  0  0  0  0  0  0  0  0  0  0  0
    4.4640   -5.0840   28.3430 C   0  0  0  0  0  0  0  0  0  0  0  0
    3.4600   -6.1440   28.1360 C   0  0  0  0  0  0  0  0  0  0  0  0
    3.5040   -6.9600   26.8740 C   0  0  0  0  0  0  0  0  0  0  0  0
    2.5630   -7.9630   26.6440 O   0  0  0  0  0  0  0  0  0  0  0  0
    2.5810   -8.5870   25.4290 C   0  0  0  0  0  0  0  0  0  0  0  0
    4.4770   -6.7430   25.8990 C   0  0  0  0  0  0  0  0  0  0  0  0
    5.4130   -5.7290   26.1310 C   0  0  0  0  0  0  0  0  0  0  0  0
    5.5560   -4.6880   23.3440 C   0  0  0  0  0  0  0  0  0  0  0  0
    6.4860   -5.3660   22.3350 C   0  0  0  0  0  0  0  0  0  0  0  0
  1  2  1  0
  2  3  2  0
  2  4  1  0
  4  5  1  0
  5  6  1  0
  6  7  1  0
  7  8  1  0
  8  9  2  0
  8 10  1  0
 11 10  1  6
 11 12  1  0
 12 13  2  0
 13 14  1  0
 14 15  2  0
 15 16  1  0
 12 17  1  0
 16 17  2  0
 11 18  1  0
 18 19  2  0
 19 20  1  0
 20 21  2  0
 21 22  1  0
 22 23  1  0
 21 24  1  0
 18 25  1  0
 24 25  2  0
  7 26  1  0
  4 27  1  0
 26 27  1  0
M  END
