piperidine-amides-24898-covalent
     RDKit          3D

 22 24  0  0  0  0  0  0  0  0999 V2000
    7.0720   -3.3710   19.3600 C   0  0  0  0  0  0  0  0  0  0  0  0
    6.3660   -4.1970   20.3470 C   0  0  0  0  0  0  0  0  0  0  0  0
    5.3820   -4.8840   19.9930 O   0  0  0  0  0  0  0  0  0  0  0  0
    6.8180   -4.2570   21.6770 N   0  0  0  0  0  0  0  0  0  0  0  0
    6.6970   -5.5160   22.4060 C   0  0  0  0  0  0  0  0  0  0  0  0
    6.2090   -5.2160   23.8400 C   0  0  0  0  0  0  0  0  0  0  0  0
    6.2190   -3.7150   23.9590 C   0  0  0  0  0  0  0  0  0  0  0  0
    5.7830   -3.1990   25.2750 C   0  0  0  0  0  0  0  0  0  0  0  0
    5.2900   -2.0610   25.2700 O   0  0  0  0  0  0  0  0  0  0  0  0
    5.8390   -3.9080   26.5010 N   0  0  0  0  0  0  0  0  0  0  0  0
    6.4700   -3.2160   27.6050 C   0  0  0  0  0  0  0  0  0  0  0  0
    6.9950   -4.2050   28.6270 C   0  0  0  0  0  0  0  0  0  0  0  0
    6.6130   -5.8020   28.5730 S   0  0  0  0  0  0  0  0  0  0  0  0
    4.9860   -5.5020   27.9720 C   0  0  0  0  0  0  0  0  0  0  0  0
    4.7160   -4.2950   27.3450 C   0  0  1  0  0  0  0  0  0  0  0  0
    4.3620   -3.1190   28.0140 C   0  0  0  0  0  0  0  0  0  0  0  0
    4.2020   -3.0010   29.3610 C   0  0  0  0  0  0  0  0  0  0  0  0
    3.8160   -1.7690   30.1820 C   0  0  0  0  0  0  0  0  0  0  0  0
    3.6910   -0.8180   28.9780 C   0  0  0  0  0  0  0  0  0  0  0  0
    4.0130   -1.5390   27.4760 S   0  0  0  0  0  0  0  0  0  0  0  0
    7.4860   -3.0840   23.5890 C   0  0  0  0  0  0  0  0  0  0  0  0
    7.6820   -3.2220   22.1620 C   0  0  0  0  0  0  0  0  0  0  0  0
  1  2  1  0
  2  3  2  0
  2  4  1  0
  4  5  1  0
  5  6  1  0
  6  7  1  0
  7  8  1  0
  8  9  2  0
  8 10  1  0
 10 11  1  0
 11 12  1  0
 12 13  1  0
 13 14  1  0
 10 15  1  0
 14 15  1  0
 15 16  1  1
 16 17  2  0
 17 18  1  0
 18 19  2  0
 16 20  1  0
 19 20  1  0
  7 21  1  0
  4 22  1  0
 21 22  1  0
M  END
