piperidine-amides-32538-covalent
     RDKit          3D

 27 29  0  0  0  0  0  0  0  0999 V2000
    7.0710   -3.3800   19.4170 C   0  0  0  0  0  0  0  0  0  0  0  0
    6.3600   -4.2470   20.3930 C   0  0  0  0  0  0  0  0  0  0  0  0
    5.3710   -4.8890   19.9940 O   0  0  0  0  0  0  0  0  0  0  0  0
    6.8440   -4.3630   21.7200 N   0  0  0  0  0  0  0  0  0  0  0  0
    7.6670   -3.3600   22.3520 C   0  0  0  0  0  0  0  0  0  0  0  0
    6.8450   -2.7380   23.4910 C   0  0  0  0  0  0  0  0  0  0  0  0
    6.1910   -3.8190   24.3030 C   0  0  0  0  0  0  0  0  0  0  0  0
    5.1580   -3.2720   25.2550 C   0  0  0  0  0  0  0  0  0  0  0  0
    4.2660   -2.6070   24.7400 O   0  0  0  0  0  0  0  0  0  0  0  0
    5.2290   -3.5140   26.6480 N   0  0  0  0  0  0  0  0  0  0  0  0
    4.4330   -3.0350   27.7000 C   0  0  0  0  0  0  0  0  0  0  0  0
    4.2320   -3.7750   28.8420 C   0  0  0  0  0  0  0  0  0  0  0  0
    5.5080   -4.3240   29.2060 N   0  0  0  0  0  0  0  0  0  0  0  0
    5.4700   -6.0260   29.1530 S   0  0  0  0  0  0  0  0  0  0  0  0
    4.9280   -6.5090   27.8200 O   0  0  0  0  0  0  0  0  0  0  0  0
    6.8810   -6.4740   29.3070 O   0  0  0  0  0  0  0  0  0  0  0  0
    4.4590   -6.5850   30.5150 C   0  0  0  0  0  0  0  0  0  0  0  0
    3.6730   -5.6980   31.2370 C   0  0  0  0  0  0  0  0  0  0  0  0
    3.0200   -6.4760   32.2200 N   0  0  0  0  0  0  0  0  0  0  0  0
    2.1140   -5.9550   33.1830 C   0  0  0  0  0  0  0  0  0  0  0  0
    3.3870   -7.8160   32.1160 C   0  0  0  0  0  0  0  0  0  0  0  0
    2.7900   -8.8350   33.0890 C   0  0  0  0  0  0  0  0  0  0  0  0
    4.2550   -7.8120   31.0730 N   0  0  0  0  0  0  0  0  0  0  0  0
    6.5660   -3.7450   28.6410 C   0  0  0  0  0  0  0  0  0  0  0  0
    6.4180   -3.9900   27.1930 C   0  0  0  0  0  0  0  0  0  0  0  0
    5.5770   -4.9550   23.5150 C   0  0  0  0  0  0  0  0  0  0  0  0
    6.4500   -5.4380   22.5690 C   0  0  0  0  0  0  0  0  0  0  0  0
  1  2  1  0
  2  3  2  0
  2  4  1  0
  4  5  1  0
  5  6  1  0
  6  7  1  0
  7  8  1  0
  8  9  2  0
  8 10  1  0
 10 11  1  0
 11 12  1  0
 12 13  1  0
 13 14  1  0
 14 15  2  0
 14 16  2  0
 14 17  1  0
 17 18  2  0
 18 19  1  0
 19 20  1  0
 19 21  1  0
 21 22  1  0
 17 23  1  0
 21 23  2  0
 13 24  1  0
 10 25  1  0
 24 25  1  0
  7 26  1  0
  4 27  1  0
 26 27  1  0
M  END
