piperidine-amides-24914-covalent
     RDKit          3D

 23 24  0  0  0  0  0  0  0  0999 V2000
    7.0890   -3.3200   19.3200 C   0  0  0  0  0  0  0  0  0  0  0  0
    6.4030   -4.1720   20.3020 C   0  0  0  0  0  0  0  0  0  0  0  0
    5.3800   -4.8120   19.9740 O   0  0  0  0  0  0  0  0  0  0  0  0
    6.9210   -4.3160   21.5980 N   0  0  0  0  0  0  0  0  0  0  0  0
    7.7430   -3.2710   22.1670 C   0  0  0  0  0  0  0  0  0  0  0  0
    6.9470   -2.6870   23.3260 C   0  0  0  0  0  0  0  0  0  0  0  0
    6.5590   -3.8660   24.1880 C   0  0  0  0  0  0  0  0  0  0  0  0
    5.7860   -3.3940   25.3500 C   0  0  0  0  0  0  0  0  0  0  0  0
    4.5390   -3.3810   25.2650 O   0  0  0  0  0  0  0  0  0  0  0  0
    6.4510   -2.9650   26.5190 N   0  0  0  0  0  0  0  0  0  0  0  0
    6.2400   -3.6690   27.7590 C   0  0  0  0  0  0  0  0  0  0  0  0
    5.8750   -5.1110   27.4680 C   0  0  0  0  0  0  0  0  0  0  0  0
    6.6020   -5.9020   28.3830 O   0  0  0  0  0  0  0  0  0  0  0  0
    6.0180   -6.7790   29.2540 C   0  0  0  0  0  0  0  0  0  0  0  0
    6.4860   -1.7420   27.2790 C   0  0  0  0  0  0  0  0  0  0  0  0
    5.9490   -0.6800   26.6270 C   0  0  0  0  0  0  0  0  0  0  0  0
    5.9090    0.5530   27.2410 C   0  0  0  0  0  0  0  0  0  0  0  0
    6.3550    1.1150   28.6110 C   0  0  0  0  0  0  0  0  0  0  0  0
    6.9190   -0.2060   29.1740 C   0  0  0  0  0  0  0  0  0  0  0  0
    7.5820   -0.0910   30.8080 Cl  0  0  0  0  0  0  0  0  0  0  0  0
    6.9610   -1.5370   28.5030 C   0  0  0  0  0  0  0  0  0  0  0  0
    5.7330   -4.8670   23.4130 C   0  0  0  0  0  0  0  0  0  0  0  0
    6.5520   -5.4360   22.4280 C   0  0  0  0  0  0  0  0  0  0  0  0
  1  2  1  0
  2  3  2  0
  2  4  1  0
  4  5  1  0
  5  6  1  0
  6  7  1  0
  7  8  1  0
  8  9  2  0
  8 10  1  0
 10 11  1  0
 11 12  1  0
 12 13  1  0
 13 14  1  0
 10 15  1  0
 15 16  2  0
 16 17  1  0
 17 18  2  0
 18 19  1  0
 19 20  1  0
 15 21  1  0
 19 21  2  0
  7 22  1  0
  4 23  1  0
 22 23  1  0
M  END
