piperidine-amides-11733-covalent
     RDKit          3D

 29 31  0  0  0  0  0  0  0  0999 V2000
    7.1680   -3.2950   19.2390 C   0  0  0  0  0  0  0  0  0  0  0  0
    6.3730   -4.0520   20.1940 C   0  0  0  0  0  0  0  0  0  0  0  0
    5.2820   -4.5190   19.8770 O   0  0  0  0  0  0  0  0  0  0  0  0
    6.9130   -4.3080   21.4940 N   0  0  0  0  0  0  0  0  0  0  0  0
    7.7250   -3.3030   22.1290 C   0  0  0  0  0  0  0  0  0  0  0  0
    6.9510   -2.6700   23.2320 C   0  0  0  0  0  0  0  0  0  0  0  0
    6.5330   -3.7870   24.1580 C   0  0  0  0  0  0  0  0  0  0  0  0
    5.8540   -3.1910   25.3310 C   0  0  0  0  0  0  0  0  0  0  0  0
    4.6370   -3.3350   25.5460 O   0  0  0  0  0  0  0  0  0  0  0  0
    6.6610   -2.4310   26.2070 N   0  0  0  0  0  0  0  0  0  0  0  0
    6.0650   -1.4120   27.0410 C   0  0  1  0  0  0  0  0  0  0  0  0
    5.6500   -0.2890   26.1180 C   0  0  0  0  0  0  0  0  0  0  0  0
    5.4870   -0.4570   24.7430 C   0  0  0  0  0  0  0  0  0  0  0  0
    5.1020    0.5740   23.8910 C   0  0  0  0  0  0  0  0  0  0  0  0
    4.8650    1.8200   24.3820 C   0  0  0  0  0  0  0  0  0  0  0  0
    4.9980    2.1340   25.7860 C   0  0  0  0  0  0  0  0  0  0  0  0
    4.7670    3.3790   26.3260 C   0  0  0  0  0  0  0  0  0  0  0  0
    5.1890    4.4830   25.6820 F   0  0  0  0  0  0  0  0  0  0  0  0
    3.4260    3.5320   26.5700 F   0  0  0  0  0  0  0  0  0  0  0  0
    5.3870    3.3340   27.5840 F   0  0  0  0  0  0  0  0  0  0  0  0
    5.3770    1.0950   26.5820 C   0  0  0  0  0  0  0  0  0  0  0  0
    5.1690   -1.7070   28.0200 C   0  0  0  0  0  0  0  0  0  0  0  0
    3.8020   -2.0740   27.6060 C   0  0  0  0  0  0  0  0  0  0  0  0
    2.7850   -2.0580   28.5440 C   0  0  0  0  0  0  0  0  0  0  0  0
    3.0290   -2.8960   29.6180 C   0  0  0  0  0  0  0  0  0  0  0  0
    4.4690   -3.1670   29.9040 C   0  0  0  0  0  0  0  0  0  0  0  0
    5.5160   -2.7830   28.8490 C   0  0  0  0  0  0  0  0  0  0  0  0
    5.7190   -4.8270   23.4490 C   0  0  0  0  0  0  0  0  0  0  0  0
    6.4190   -5.4160   22.2710 C   0  0  0  0  0  0  0  0  0  0  0  0
  1  2  1  0
  2  3  2  0
  2  4  1  0
  4  5  1  0
  5  6  1  0
  6  7  1  0
  7  8  1  0
  8  9  2  0
  8 10  1  0
 11 10  1  6
 11 12  1  0
 12 13  2  0
 13 14  1  0
 14 15  2  0
 15 16  1  0
 16 17  1  0
 17 18  1  0
 17 19  1  0
 17 20  1  0
 12 21  1  0
 16 21  2  0
 11 22  1  0
 22 23  1  0
 23 24  1  0
 24 25  1  0
 25 26  1  0
 22 27  1  0
 26 27  1  0
  7 28  1  0
  4 29  1  0
 28 29  1  0
M  END
