piperidine-amides-11689-covalent
     RDKit          3D

 28 31  0  0  0  0  0  0  0  0999 V2000
    7.0470   -3.3050   19.3540 C   0  0  0  0  0  0  0  0  0  0  0  0
    6.3460   -4.1260   20.3400 C   0  0  0  0  0  0  0  0  0  0  0  0
    5.3870   -4.8120   19.9790 O   0  0  0  0  0  0  0  0  0  0  0  0
    6.7810   -4.1760   21.7210 N   0  0  0  0  0  0  0  0  0  0  0  0
    6.6220   -5.4020   22.4680 C   0  0  0  0  0  0  0  0  0  0  0  0
    6.0610   -5.1290   23.8450 C   0  0  0  0  0  0  0  0  0  0  0  0
    5.8690   -3.6300   23.9780 C   0  0  0  0  0  0  0  0  0  0  0  0
    5.2210   -3.2550   25.2890 C   0  0  0  0  0  0  0  0  0  0  0  0
    3.9890   -3.1160   25.3480 O   0  0  0  0  0  0  0  0  0  0  0  0
    5.9410   -3.0370   26.5000 N   0  0  0  0  0  0  0  0  0  0  0  0
    6.1830   -4.1500   27.3910 C   0  0  0  0  0  0  0  0  0  0  0  0
    5.1690   -4.3830   28.4680 C   0  0  0  0  0  0  0  0  0  0  0  0
    5.3200   -5.4340   29.2980 C   0  0  0  0  0  0  0  0  0  0  0  0
    4.3110   -5.4730   30.1980 C   0  0  0  0  0  0  0  0  0  0  0  0
    4.0280   -6.3400   31.2320 C   0  0  0  0  0  0  0  0  0  0  0  0
    5.0440   -7.1920   31.8160 C   0  0  0  0  0  0  0  0  0  0  0  0
    4.7880   -8.0660   32.8390 C   0  0  0  0  0  0  0  0  0  0  0  0
    3.5120   -8.1650   33.3610 C   0  0  0  0  0  0  0  0  0  0  0  0
    2.4700   -7.3720   32.8520 C   0  0  0  0  0  0  0  0  0  0  0  0
    2.7500   -6.4310   31.7480 C   0  0  0  0  0  0  0  0  0  0  0  0
    1.2410   -7.5330   33.4230 O   0  0  0  0  0  0  0  0  0  0  0  0
    0.9800   -8.6740   34.1130 C   0  0  0  0  0  0  0  0  0  0  0  0
    2.0390   -9.5240   34.3800 C   0  0  0  0  0  0  0  0  0  0  0  0
    3.1490   -8.9310   34.3000 O   0  0  0  0  0  0  0  0  0  0  0  0
    3.4990   -4.3800   29.9010 O   0  0  0  0  0  0  0  0  0  0  0  0
    4.0330   -3.7340   28.8520 N   0  0  0  0  0  0  0  0  0  0  0  0
    7.1710   -2.9130   23.7370 C   0  0  0  0  0  0  0  0  0  0  0  0
    7.6360   -3.1470   22.2830 C   0  0  0  0  0  0  0  0  0  0  0  0
  1  2  1  0
  2  3  2  0
  2  4  1  0
  4  5  1  0
  5  6  1  0
  6  7  1  0
  7  8  1  0
  8  9  2  0
  8 10  1  0
 10 11  1  0
 11 12  1  0
 12 13  1  0
 13 14  2  0
 14 15  1  0
 15 16  2  0
 16 17  1  0
 17 18  2  0
 18 19  1  0
 15 20  1  0
 19 20  2  0
 19 21  1  0
 21 22  1  0
 22 23  1  0
 18 24  1  0
 23 24  1  0
 14 25  1  0
 12 26  2  0
 25 26  1  0
  7 27  1  0
  4 28  1  0
 27 28  1  0
M  END
