piperidine-amides-25083-covalent
     RDKit          3D

 24 24  0  0  0  0  0  0  0  0999 V2000
    7.1140   -3.2530   19.2330 C   0  0  0  0  0  0  0  0  0  0  0  0
    6.3670   -4.0330   20.2550 C   0  0  0  0  0  0  0  0  0  0  0  0
    5.3190   -4.5660   19.8930 O   0  0  0  0  0  0  0  0  0  0  0  0
    6.8770   -4.1750   21.5490 N   0  0  0  0  0  0  0  0  0  0  0  0
    7.7430   -3.1950   22.1540 C   0  0  0  0  0  0  0  0  0  0  0  0
    7.1670   -2.7210   23.4590 C   0  0  0  0  0  0  0  0  0  0  0  0
    6.5310   -3.8650   24.2640 C   0  0  0  0  0  0  0  0  0  0  0  0
    5.4760   -3.2220   25.0700 C   0  0  0  0  0  0  0  0  0  0  0  0
    4.4910   -2.7520   24.4980 O   0  0  0  0  0  0  0  0  0  0  0  0
    5.5540   -3.1390   26.4630 N   0  0  0  0  0  0  0  0  0  0  0  0
    5.4130   -1.8050   27.0320 C   0  0  0  0  0  0  0  0  0  0  0  0
    3.9490   -1.4230   27.0150 C   0  0  0  0  0  0  0  0  0  0  0  0
    3.0160   -2.4190   27.2240 O   0  0  0  0  0  0  0  0  0  0  0  0
    3.7020    0.0090   26.7830 N   0  0  0  0  0  0  0  0  0  0  0  0
    2.7880    0.0490   25.6390 C   0  0  0  0  0  0  0  0  0  0  0  0
    1.6410   -0.4570   26.1530 C   0  0  0  0  0  0  0  0  0  0  0  0
    5.5960   -4.2140   27.3860 C   0  0  0  0  0  0  0  0  0  0  0  0
    6.7350   -5.1970   27.2030 C   0  0  0  0  0  0  0  0  0  0  0  0
    7.3710   -6.3930   27.0370 O   0  0  0  0  0  0  0  0  0  0  0  0
    5.6660   -6.1200   27.1730 N   0  0  0  0  0  0  0  0  0  0  0  0
    5.2380   -6.7770   28.3810 C   0  0  0  0  0  0  0  0  0  0  0  0
    6.3020   -6.8280   29.4420 C   0  0  0  0  0  0  0  0  0  0  0  0
    5.9570   -5.0170   23.5250 C   0  0  0  0  0  0  0  0  0  0  0  0
    6.6330   -5.3880   22.2540 C   0  0  0  0  0  0  0  0  0  0  0  0
  1  2  1  0
  2  3  2  0
  2  4  1  0
  4  5  1  0
  5  6  1  0
  6  7  1  0
  7  8  1  0
  8  9  2  0
  8 10  1  0
 10 11  1  0
 11 12  1  0
 12 13  2  0
 12 14  1  0
 14 15  1  0
 15 16  1  0
 10 17  1  0
 17 18  1  0
 18 19  2  0
 18 20  1  0
 20 21  1  0
 21 22  1  0
  7 23  1  0
  4 24  1  0
 23 24  1  0
M  END
