piperidine-amides-30443-covalent
     RDKit          3D

 26 28  0  0  0  0  0  0  0  0999 V2000
    7.1050   -3.3220   19.2060 C   0  0  0  0  0  0  0  0  0  0  0  0
    6.3900   -4.1040   20.2130 C   0  0  0  0  0  0  0  0  0  0  0  0
    5.3300   -4.6810   19.9250 O   0  0  0  0  0  0  0  0  0  0  0  0
    6.9260   -4.2550   21.4900 N   0  0  0  0  0  0  0  0  0  0  0  0
    6.6850   -5.4350   22.2910 C   0  0  0  0  0  0  0  0  0  0  0  0
    6.0500   -4.9390   23.5630 C   0  0  0  0  0  0  0  0  0  0  0  0
    6.7470   -3.7260   24.1150 C   0  0  0  0  0  0  0  0  0  0  0  0
    5.9430   -3.0680   25.1560 C   0  0  0  0  0  0  0  0  0  0  0  0
    5.0800   -2.2000   24.8430 O   0  0  0  0  0  0  0  0  0  0  0  0
    6.0240   -3.3890   26.5090 N   0  0  0  0  0  0  0  0  0  0  0  0
    5.0090   -4.4080   26.8330 C   0  0  0  0  0  0  0  0  0  0  0  0
    5.6530   -5.4200   27.6530 C   0  0  0  0  0  0  0  0  0  0  0  0
    6.1240   -4.6990   28.7830 C   0  0  0  0  0  0  0  0  0  0  0  0
    5.3790   -3.4620   28.7580 N   0  0  0  0  0  0  0  0  0  0  0  0
    4.5860   -3.8460   29.9400 C   0  0  0  0  0  0  0  0  0  0  0  0
    5.1240   -5.2460   30.0240 C   0  0  0  0  0  0  0  0  0  0  0  0
    4.6120   -6.3990   30.8260 C   0  0  0  0  0  0  0  0  0  0  0  0
    5.2730   -7.6310   30.7520 C   0  0  0  0  0  0  0  0  0  0  0  0
    6.4320   -7.9440   29.9580 C   0  0  0  0  0  0  0  0  0  0  0  0
    7.4110   -9.5190   29.7830 Cl  0  0  0  0  0  0  0  0  0  0  0  0
    6.9310   -6.7770   29.1660 C   0  0  0  0  0  0  0  0  0  0  0  0
    6.3290   -5.4380   29.1650 C   0  0  0  0  0  0  0  0  0  0  0  0
    6.3910   -2.5330   28.5450 C   0  0  0  0  0  0  0  0  0  0  0  0
    6.3890   -2.2390   27.3640 C   0  0  0  0  0  0  0  0  0  0  0  0
    7.1440   -2.6880   23.1690 C   0  0  0  0  0  0  0  0  0  0  0  0
    7.7100   -3.2100   22.0580 C   0  0  0  0  0  0  0  0  0  0  0  0
  1  2  1  0
  2  3  2  0
  2  4  1  0
  4  5  1  0
  5  6  1  0
  6  7  1  0
  7  8  1  0
  8  9  2  0
  8 10  1  0
 10 11  1  0
 11 12  1  0
 12 13  1  0
 13 14  1  0
 14 15  1  0
 15 16  1  0
 16 17  2  0
 17 18  1  0
 18 19  2  0
 19 20  1  0
 19 21  1  0
 16 22  1  0
 21 22  2  0
 14 23  1  0
 10 24  1  0
 23 24  1  0
  7 25  1  0
  4 26  1  0
 25 26  1  0
M  END
