piperidine-amides-3411-covalent
     RDKit          3D

 21 21  0  0  0  0  0  0  0  0999 V2000
    7.0560   -3.3110   19.3530 C   0  0  0  0  0  0  0  0  0  0  0  0
    6.3480   -4.1610   20.3070 C   0  0  0  0  0  0  0  0  0  0  0  0
    5.3260   -4.7450   19.9540 O   0  0  0  0  0  0  0  0  0  0  0  0
    6.8550   -4.3760   21.6390 N   0  0  0  0  0  0  0  0  0  0  0  0
    6.3990   -5.4990   22.4060 C   0  0  0  0  0  0  0  0  0  0  0  0
    5.3850   -5.0500   23.4270 C   0  0  0  0  0  0  0  0  0  0  0  0
    5.9450   -3.8620   24.2000 C   0  0  0  0  0  0  0  0  0  0  0  0
    4.8440   -3.1860   24.9880 C   0  0  0  0  0  0  0  0  0  0  0  0
    4.0540   -2.3910   24.4570 O   0  0  0  0  0  0  0  0  0  0  0  0
    4.6900   -3.4360   26.3870 N   0  0  0  0  0  0  0  0  0  0  0  0
    5.9010   -3.7880   27.0050 C   0  0  0  0  0  0  0  0  0  0  0  0
    6.7200   -2.8780   26.1130 C   0  0  0  0  0  0  0  0  0  0  0  0
    5.9090   -5.2730   26.7960 C   0  0  0  0  0  0  0  0  0  0  0  0
    6.0860   -3.3980   28.4170 C   0  0  0  0  0  0  0  0  0  0  0  0
    5.6020   -2.1940   28.8890 C   0  0  0  0  0  0  0  0  0  0  0  0
    6.4280   -0.7190   29.1980 S   0  0  0  0  0  0  0  0  0  0  0  0
    5.8960    0.2080   27.8770 C   0  0  0  0  0  0  0  0  0  0  0  0
    6.0660   -0.1160   30.5190 O   0  0  0  0  0  0  0  0  0  0  0  0
    7.9090   -0.8210   29.1090 O   0  0  0  0  0  0  0  0  0  0  0  0
    6.6510   -2.8240   23.3390 C   0  0  0  0  0  0  0  0  0  0  0  0
    7.5370   -3.3360   22.4070 C   0  0  0  0  0  0  0  0  0  0  0  0
  1  2  1  0
  2  3  2  0
  2  4  1  0
  4  5  1  0
  5  6  1  0
  6  7  1  0
  7  8  1  0
  8  9  2  0
  8 10  1  0
 11 10  1  0
 11 12  1  0
 11 13  1  0
 11 14  1  0
 14 15  1  0
 16 15  1  0
 16 17  1  0
 16 18  2  0
 16 19  2  0
  7 20  1  0
  4 21  1  0
 20 21  1  0
M  END
