piperidine-amides-9296-covalent
     RDKit          3D

 19 20  0  0  0  0  0  0  0  0999 V2000
    7.1340   -3.3070   19.2210 C   0  0  0  0  0  0  0  0  0  0  0  0
    6.3460   -4.0170   20.2240 C   0  0  0  0  0  0  0  0  0  0  0  0
    5.2810   -4.5540   19.8910 O   0  0  0  0  0  0  0  0  0  0  0  0
    6.8160   -4.1380   21.5350 N   0  0  0  0  0  0  0  0  0  0  0  0
    7.6860   -3.1550   22.1250 C   0  0  0  0  0  0  0  0  0  0  0  0
    6.9320   -2.6840   23.3230 C   0  0  0  0  0  0  0  0  0  0  0  0
    6.6120   -3.8320   24.2290 C   0  0  0  0  0  0  0  0  0  0  0  0
    5.9100   -3.3760   25.4450 C   0  0  0  0  0  0  0  0  0  0  0  0
    4.6490   -3.2150   25.4510 O   0  0  0  0  0  0  0  0  0  0  0  0
    6.6230   -3.0870   26.6250 N   0  0  0  0  0  0  0  0  0  0  0  0
    6.0800   -3.3820   27.9650 C   0  0  0  0  0  0  0  0  0  0  0  0
    6.3130   -4.7990   28.3430 C   0  0  2  0  0  0  0  0  0  0  0  0
    6.0340   -5.8390   27.3380 C   0  0  0  0  0  0  0  0  0  0  0  0
    4.7880   -6.6420   27.6340 C   0  0  0  0  0  0  0  0  0  0  0  0
    4.8440   -7.3290   28.9850 C   0  0  0  0  0  0  0  0  0  0  0  0
    5.1760   -6.2770   29.9770 C   0  0  0  0  0  0  0  0  0  0  0  0
    5.4700   -5.0210   29.3700 N   0  0  0  0  0  0  0  0  0  0  0  0
    5.8000   -4.8600   23.4610 C   0  0  0  0  0  0  0  0  0  0  0  0
    6.4610   -5.3060   22.3060 C   0  0  0  0  0  0  0  0  0  0  0  0
  1  2  1  0
  2  3  2  0
  2  4  1  0
  4  5  1  0
  5  6  1  0
  6  7  1  0
  7  8  1  0
  8  9  2  0
  8 10  1  0
 10 11  1  0
 12 11  1  6
 12 13  1  0
 13 14  1  0
 14 15  1  0
 15 16  1  0
 12 17  1  0
 16 17  1  0
  7 18  1  0
  4 19  1  0
 18 19  1  0
M  END
