piperidine-amides-11763-covalent
     RDKit          3D

 29 31  0  0  0  0  0  0  0  0999 V2000
    7.2980   -3.1800   18.8280 C   0  0  0  0  0  0  0  0  0  0  0  0
    6.3220   -3.7890   19.7160 C   0  0  0  0  0  0  0  0  0  0  0  0
    5.1290   -3.8810   19.4380 O   0  0  0  0  0  0  0  0  0  0  0  0
    6.7850   -4.2950   20.9480 N   0  0  0  0  0  0  0  0  0  0  0  0
    6.0650   -5.3840   21.5650 C   0  0  0  0  0  0  0  0  0  0  0  0
    5.0710   -4.8920   22.5910 C   0  0  0  0  0  0  0  0  0  0  0  0
    5.7150   -3.7420   23.3000 C   0  0  0  0  0  0  0  0  0  0  0  0
    4.8580   -3.0720   24.2610 C   0  0  0  0  0  0  0  0  0  0  0  0
    3.6570   -3.2720   24.5060 O   0  0  0  0  0  0  0  0  0  0  0  0
    5.6200   -2.1520   24.9270 N   0  0  0  0  0  0  0  0  0  0  0  0
    6.8260   -2.8030   25.3190 C   0  0  0  0  0  0  0  0  0  0  0  0
    7.4480   -3.6290   24.1500 C   0  0  0  0  0  0  0  0  0  0  0  0
    8.4110   -2.8890   23.6320 C   0  0  0  0  0  0  0  0  0  0  0  0
    7.6530   -2.2760   24.6780 C   0  0  0  0  0  0  0  0  0  0  0  0
    6.5700   -3.0750   25.2390 C   0  0  0  0  0  0  0  0  0  0  0  0
    5.5970   -2.6810   26.3200 C   0  0  0  0  0  0  0  0  0  0  0  0
    4.9330   -1.6000   26.1950 O   0  0  0  0  0  0  0  0  0  0  0  0
    5.4350   -3.5210   27.3730 N   0  0  0  0  0  0  0  0  0  0  0  0
    4.3600   -3.5570   28.3030 C   0  0  0  0  0  0  0  0  0  0  0  0
    4.3700   -4.7830   28.9470 C   0  0  2  0  0  0  0  0  0  0  0  0
    3.4410   -4.9620   29.9700 C   0  0  0  0  0  0  0  0  0  0  0  0
    5.4470   -5.1660   29.4650 O   0  0  0  0  0  0  0  0  0  0  0  0
    6.5070   -5.0670   28.5820 C   0  0  1  0  0  0  0  0  0  0  0  0
    6.3370   -5.9900   27.5700 C   0  0  0  0  0  0  0  0  0  0  0  0
    6.6540   -3.7140   27.9740 C   0  0  0  0  0  0  0  0  0  0  0  0
    6.2130   -4.4190   24.8330 C   0  0  0  0  0  0  0  0  0  0  0  0
    7.0800   -4.9320   23.7290 C   0  0  0  0  0  0  0  0  0  0  0  0
    6.3180   -2.7220   22.4110 C   0  0  0  0  0  0  0  0  0  0  0  0
    7.4660   -3.3130   21.7290 C   0  0  0  0  0  0  0  0  0  0  0  0
  1  2  1  0
  2  3  2  0
  2  4  1  0
  4  5  1  0
  5  6  1  0
  6  7  1  0
  7  8  1  0
  8  9  2  0
  8 10  1  0
 10 11  1  0
 11 12  1  0
 12 13  2  0
 13 14  1  0
 14 15  2  0
 15 16  1  0
 16 17  2  0
 16 18  1  0
 18 19  1  0
 19 20  1  0
 20 21  1  1
 20 22  1  0
 22 23  1  0
 23 24  1  6
 18 25  1  0
 23 25  1  0
 15 26  1  0
 12 27  1  0
 26 27  2  0
  7 28  1  0
  4 29  1  0
 28 29  1  0
M  END
