piperidine-amides-33838-covalent
     RDKit          3D

 24 26  0  0  0  0  0  0  0  0999 V2000
    7.0550   -3.3570   19.3430 C   0  0  0  0  0  0  0  0  0  0  0  0
    6.3500   -4.1830   20.3360 C   0  0  0  0  0  0  0  0  0  0  0  0
    5.3010   -4.7430   19.9460 O   0  0  0  0  0  0  0  0  0  0  0  0
    6.8490   -4.3940   21.6490 N   0  0  0  0  0  0  0  0  0  0  0  0
    6.2240   -5.4230   22.3870 C   0  0  0  0  0  0  0  0  0  0  0  0
    5.5200   -4.9270   23.5640 C   0  0  0  0  0  0  0  0  0  0  0  0
    6.3700   -4.2260   24.5460 C   0  0  0  0  0  0  0  0  0  0  0  0
    5.5770   -3.2930   25.4580 C   0  0  0  0  0  0  0  0  0  0  0  0
    4.7890   -2.5120   24.8870 O   0  0  0  0  0  0  0  0  0  0  0  0
    5.5930   -3.2180   26.9210 N   0  0  0  0  0  0  0  0  0  0  0  0
    4.4290   -2.7660   27.5630 C   0  0  0  0  0  0  0  0  0  0  0  0
    4.7560   -1.6220   28.2430 C   0  0  0  0  0  0  0  0  0  0  0  0
    6.4150   -1.8060   27.6910 S   0  0  0  0  0  0  0  0  0  0  0  0
    6.5450   -1.7570   26.1970 O   0  0  0  0  0  0  0  0  0  0  0  0
    7.1950   -0.6770   28.2650 O   0  0  0  0  0  0  0  0  0  0  0  0
    6.8540   -3.3270   28.4780 C   0  0  0  0  0  0  0  0  0  0  0  0
    7.0480   -4.5530   28.9350 N   0  0  0  0  0  0  0  0  0  0  0  0
    6.1840   -5.2490   28.1330 C   0  0  0  0  0  0  0  0  0  0  0  0
    5.8500   -6.5940   28.0750 C   0  0  0  0  0  0  0  0  0  0  0  0
    4.5160   -6.8070   26.6910 Br  0  0  0  0  0  0  0  0  0  0  0  0
    6.6470   -5.3990   28.6650 C   0  0  0  0  0  0  0  0  0  0  0  0
    5.9510   -4.3790   27.6140 C   0  0  0  0  0  0  0  0  0  0  0  0
    7.5860   -3.5500   23.8930 C   0  0  0  0  0  0  0  0  0  0  0  0
    7.3900   -3.2790   22.3990 C   0  0  0  0  0  0  0  0  0  0  0  0
  1  2  1  0
  2  3  2  0
  2  4  1  0
  4  5  1  0
  5  6  1  0
  6  7  1  0
  7  8  1  0
  8  9  2  0
  8 10  1  0
 10 11  1  0
 11 12  1  0
 13 12  1  0
 13 14  2  0
 13 15  2  0
 13 16  1  0
 16 17  2  0
 17 18  1  0
 18 19  2  0
 19 20  1  0
 19 21  1  0
 10 22  1  0
 16 22  1  0
 21 22  2  0
  7 23  1  0
  4 24  1  0
 23 24  1  0
M  END
