piperidine-amides-679-covalent
     RDKit          3D

 26 28  0  0  0  0  0  0  0  0999 V2000
    7.0130   -3.3260   19.2110 C   0  0  0  0  0  0  0  0  0  0  0  0
    6.2720   -4.0390   20.2390 C   0  0  0  0  0  0  0  0  0  0  0  0
    5.2100   -4.6200   19.8880 O   0  0  0  0  0  0  0  0  0  0  0  0
    6.6700   -4.1710   21.5820 N   0  0  0  0  0  0  0  0  0  0  0  0
    7.6390   -3.2070   22.1460 C   0  0  0  0  0  0  0  0  0  0  0  0
    6.7910   -2.5660   23.3120 C   0  0  0  0  0  0  0  0  0  0  0  0
    5.8170   -3.6170   23.8000 C   0  0  0  0  0  0  0  0  0  0  0  0
    5.1990   -3.2480   25.2240 C   0  0  0  0  0  0  0  0  0  0  0  0
    4.1760   -2.5970   25.0800 O   0  0  0  0  0  0  0  0  0  0  0  0
    5.9140   -3.7180   26.1630 N   0  0  0  0  0  0  0  0  0  0  0  0
    6.6080   -4.2070   27.2260 C   0  0  0  0  0  0  0  0  0  0  0  0
    7.7280   -4.8640   27.5920 C   0  0  0  0  0  0  0  0  0  0  0  0
    8.8520   -4.0760   27.1400 N   0  0  0  0  0  0  0  0  0  0  0  0
    8.8060   -3.0000   26.2940 C   0  0  0  0  0  0  0  0  0  0  0  0
    9.1090   -3.5070   24.9330 C   0  0  0  0  0  0  0  0  0  0  0  0
   10.3780   -3.8650   24.9630 N   0  0  0  0  0  0  0  0  0  0  0  0
   11.3030   -3.0370   24.6080 C   0  0  0  0  0  0  0  0  0  0  0  0
   10.9240   -2.1600   23.7080 N   0  0  0  0  0  0  0  0  0  0  0  0
   11.7320   -1.2120   23.2010 C   0  0  0  0  0  0  0  0  0  0  0  0
   13.1030   -0.9000   23.4560 C   0  0  0  0  0  0  0  0  0  0  0  0
   13.3800   -2.0130   24.5180 C   0  0  0  0  0  0  0  0  0  0  0  0
   12.5430   -2.9620   25.0160 N   0  0  0  0  0  0  0  0  0  0  0  0
   10.7530   -4.7800   25.9740 C   0  0  0  0  0  0  0  0  0  0  0  0
    9.9790   -4.9160   27.0520 C   0  0  0  0  0  0  0  0  0  0  0  0
    6.1900   -5.0850   23.6030 C   0  0  0  0  0  0  0  0  0  0  0  0
    6.4070   -5.3870   22.2980 C   0  0  0  0  0  0  0  0  0  0  0  0
  1  2  1  0
  2  3  2  0
  2  4  1  0
  4  5  1  0
  5  6  1  0
  6  7  1  0
  7  8  1  0
  8  9  2  0
  8 10  1  0
 10 11  1  0
 11 12  1  0
 12 13  1  0
 13 14  1  0
 14 15  1  0
 15 16  1  0
 16 17  1  0
 17 18  2  0
 18 19  1  0
 19 20  2  0
 20 21  1  0
 17 22  1  0
 21 22  2  0
 16 23  1  0
 13 24  1  0
 23 24  1  0
  7 25  1  0
  4 26  1  0
 25 26  1  0
M  END
