piperidine-amides-35278-covalent
     RDKit          3D

 33 35  0  0  0  0  0  0  0  0999 V2000
    7.0850   -3.2620   19.2620 C   0  0  0  0  0  0  0  0  0  0  0  0
    6.3400   -4.0480   20.2790 C   0  0  0  0  0  0  0  0  0  0  0  0
    5.3050   -4.5960   19.9040 O   0  0  0  0  0  0  0  0  0  0  0  0
    6.8350   -4.1780   21.5830 N   0  0  0  0  0  0  0  0  0  0  0  0
    7.6610   -3.1700   22.1950 C   0  0  0  0  0  0  0  0  0  0  0  0
    7.0680   -2.7430   23.5090 C   0  0  0  0  0  0  0  0  0  0  0  0
    6.4750   -3.9520   24.2430 C   0  0  0  0  0  0  0  0  0  0  0  0
    5.7110   -3.4530   25.4170 C   0  0  0  0  0  0  0  0  0  0  0  0
    4.4780   -3.3670   25.3190 O   0  0  0  0  0  0  0  0  0  0  0  0
    6.3340   -3.0600   26.6310 N   0  0  0  0  0  0  0  0  0  0  0  0
    6.2340   -3.9050   27.8140 C   0  0  0  0  0  0  0  0  0  0  0  0
    5.7660   -5.3020   27.4470 C   0  0  0  0  0  0  0  0  0  0  0  0
    5.8540   -6.3320   28.3380 C   0  0  0  0  0  0  0  0  0  0  0  0
    5.1220   -6.4470   29.5440 N   0  0  0  0  0  0  0  0  0  0  0  0
    4.1610   -5.4320   29.9390 C   0  0  0  0  0  0  0  0  0  0  0  0
    3.2120   -6.2900   29.5520 C   0  0  0  0  0  0  0  0  0  0  0  0
    4.0720   -7.4320   29.0900 C   0  0  0  0  0  0  0  0  0  0  0  0
    6.5260   -1.6750   26.8710 C   0  0  0  0  0  0  0  0  0  0  0  0
    5.5060   -0.6140   27.2300 C   0  0  1  0  0  0  0  0  0  0  0  0
    5.0050   -1.1750   28.5210 C   0  0  0  0  0  0  0  0  0  0  0  0
    4.1940   -0.2040   29.3160 C   0  0  0  0  0  0  0  0  0  0  0  0
    4.0580    1.2470   28.8760 C   0  0  0  0  0  0  0  0  0  0  0  0
    4.6080    1.4770   27.7000 N   0  0  0  0  0  0  0  0  0  0  0  0
    4.4210    2.7610   27.4480 C   0  0  0  0  0  0  0  0  0  0  0  0
    4.7200    3.2430   26.1610 O   0  0  0  0  0  0  0  0  0  0  0  0
    3.9550    3.6520   28.3760 O   0  0  0  0  0  0  0  0  0  0  0  0
    3.1760    4.6700   27.8810 C   0  0  0  0  0  0  0  0  0  0  0  0
    4.0580    5.5790   27.3340 C   0  0  0  0  0  0  0  0  0  0  0  0
    2.3030    5.4330   28.8650 C   0  0  0  0  0  0  0  0  0  0  0  0
    2.2380    4.1450   26.8490 C   0  0  0  0  0  0  0  0  0  0  0  0
    5.7470    0.7650   27.1620 C   0  0  0  0  0  0  0  0  0  0  0  0
    5.6210   -4.8970   23.4350 C   0  0  0  0  0  0  0  0  0  0  0  0
    6.5170   -5.3920   22.2940 C   0  0  0  0  0  0  0  0  0  0  0  0
  1  2  1  0
  2  3  2  0
  2  4  1  0
  4  5  1  0
  5  6  1  0
  6  7  1  0
  7  8  1  0
  8  9  2  0
  8 10  1  0
 10 11  1  0
 11 12  1  0
 12 13  1  0
 13 14  1  0
 14 15  1  0
 15 16  1  0
 14 17  1  0
 16 17  1  0
 10 18  1  0
 19 18  1  1
 19 20  1  0
 20 21  1  0
 21 22  1  0
 22 23  1  0
 23 24  1  0
 24 25  2  0
 24 26  1  0
 27 26  1  0
 27 28  1  0
 27 29  1  0
 27 30  1  0
 19 31  1  0
 23 31  1  0
  7 32  1  0
  4 33  1  0
 32 33  1  0
M  END
