piperidine-amides-2482-covalent
     RDKit          3D

 26 27  0  0  0  0  0  0  0  0999 V2000
    6.9910   -3.2210   19.2150 C   0  0  0  0  0  0  0  0  0  0  0  0
    6.1820   -3.9750   20.2220 C   0  0  0  0  0  0  0  0  0  0  0  0
    5.1740   -4.5440   19.8390 O   0  0  0  0  0  0  0  0  0  0  0  0
    6.5700   -4.0410   21.5460 N   0  0  0  0  0  0  0  0  0  0  0  0
    7.3170   -2.9710   22.1380 C   0  0  0  0  0  0  0  0  0  0  0  0
    6.6670   -2.5160   23.4130 C   0  0  0  0  0  0  0  0  0  0  0  0
    5.7700   -3.6100   23.9910 C   0  0  0  0  0  0  0  0  0  0  0  0
    5.6790   -3.3500   25.4430 C   0  0  0  0  0  0  0  0  0  0  0  0
    4.5710   -3.0960   25.9350 O   0  0  0  0  0  0  0  0  0  0  0  0
    6.8210   -3.3770   26.2770 N   0  0  0  0  0  0  0  0  0  0  0  0
    7.3580   -4.6570   26.6780 C   0  0  0  0  0  0  0  0  0  0  0  0
    8.6820   -4.8000   25.9570 C   0  0  0  0  0  0  0  0  0  0  0  0
    9.0540   -3.9820   24.9120 C   0  0  0  0  0  0  0  0  0  0  0  0
    8.6310   -3.9150   23.6530 C   0  0  0  0  0  0  0  0  0  0  0  0
    9.2200   -2.9680   22.8360 C   0  0  0  0  0  0  0  0  0  0  0  0
   10.3110   -1.9880   23.2560 C   0  0  0  0  0  0  0  0  0  0  0  0
   10.6470   -2.2180   24.7030 C   0  0  0  0  0  0  0  0  0  0  0  0
   11.5850   -1.4790   25.3490 O   0  0  0  0  0  0  0  0  0  0  0  0
   12.9470   -1.6010   25.0470 C   0  0  0  0  0  0  0  0  0  0  0  0
   13.1510   -2.9160   24.5260 C   0  0  0  0  0  0  0  0  0  0  0  0
   13.9230   -3.0370   23.4120 F   0  0  0  0  0  0  0  0  0  0  0  0
   13.6900   -3.6130   25.5890 F   0  0  0  0  0  0  0  0  0  0  0  0
   11.9270   -3.3520   24.1510 F   0  0  0  0  0  0  0  0  0  0  0  0
   10.0090   -3.1880   25.4350 C   0  0  0  0  0  0  0  0  0  0  0  0
    6.0670   -5.0340   23.6560 C   0  0  0  0  0  0  0  0  0  0  0  0
    6.5030   -5.3010   22.2540 C   0  0  0  0  0  0  0  0  0  0  0  0
  1  2  1  0
  2  3  2  0
  2  4  1  0
  4  5  1  0
  5  6  1  0
  6  7  1  0
  7  8  1  0
  8  9  2  0
  8 10  1  0
 10 11  1  0
 11 12  1  0
 12 13  1  0
 13 14  2  0
 14 15  1  0
 15 16  2  0
 16 17  1  0
 17 18  1  0
 18 19  1  0
 19 20  1  0
 20 21  1  0
 20 22  1  0
 20 23  1  0
 13 24  1  0
 17 24  2  0
  7 25  1  0
  4 26  1  0
 25 26  1  0
M  END
