piperidine-amides-28917-covalent
     RDKit          3D

 25 27  0  0  0  0  0  0  0  0999 V2000
    7.0980   -3.3630   19.3540 C   0  0  0  0  0  0  0  0  0  0  0  0
    6.4080   -4.2060   20.3200 C   0  0  0  0  0  0  0  0  0  0  0  0
    5.3560   -4.7660   19.9660 O   0  0  0  0  0  0  0  0  0  0  0  0
    6.9750   -4.4190   21.6050 N   0  0  0  0  0  0  0  0  0  0  0  0
    6.5650   -5.5620   22.3580 C   0  0  0  0  0  0  0  0  0  0  0  0
    5.7090   -5.0890   23.4920 C   0  0  0  0  0  0  0  0  0  0  0  0
    6.4660   -3.9510   24.1450 C   0  0  0  0  0  0  0  0  0  0  0  0
    5.6780   -3.3300   25.2710 C   0  0  0  0  0  0  0  0  0  0  0  0
    4.9350   -2.4120   24.9510 O   0  0  0  0  0  0  0  0  0  0  0  0
    5.8160   -3.7950   26.5800 N   0  0  0  0  0  0  0  0  0  0  0  0
    6.4080   -3.0440   27.6190 C   0  0  0  0  0  0  0  0  0  0  0  0
    6.9130   -3.8130   28.6900 C   0  0  0  0  0  0  0  0  0  0  0  0
    6.5570   -5.1190   28.7360 C   0  0  0  0  0  0  0  0  0  0  0  0
    5.3260   -5.3500   28.2370 C   0  0  0  0  0  0  0  0  0  0  0  0
    4.5940   -6.3420   29.0120 C   0  0  0  0  0  0  0  0  0  0  0  0
    3.1730   -6.7110   28.5920 C   0  0  0  0  0  0  0  0  0  0  0  0
    2.5720   -6.0300   27.3900 C   0  0  0  0  0  0  0  0  0  0  0  0
    3.3660   -4.9830   26.5860 C   0  0  0  0  0  0  0  0  0  0  0  0
    2.3990   -4.3380   25.2180 S   0  0  0  0  0  0  0  0  0  0  0  0
    0.7050   -4.2300   25.6190 N   0  0  0  0  0  0  0  0  0  0  0  0
    2.5260   -5.1770   23.9720 O   0  0  0  0  0  0  0  0  0  0  0  0
    2.9270   -2.9780   24.9040 O   0  0  0  0  0  0  0  0  0  0  0  0
    4.8230   -4.7170   27.1370 C   0  0  0  0  0  0  0  0  0  0  0  0
    6.7150   -2.8490   23.1450 C   0  0  0  0  0  0  0  0  0  0  0  0
    7.6710   -3.3620   22.3040 C   0  0  0  0  0  0  0  0  0  0  0  0
  1  2  1  0
  2  3  2  0
  2  4  1  0
  4  5  1  0
  5  6  1  0
  6  7  1  0
  7  8  1  0
  8  9  2  0
  8 10  1  0
 10 11  1  0
 11 12  1  0
 12 13  1  0
 13 14  1  0
 14 15  2  0
 15 16  1  0
 16 17  2  0
 17 18  1  0
 18 19  1  0
 19 20  1  0
 19 21  2  0
 19 22  2  0
 10 23  1  0
 14 23  1  0
 18 23  2  0
  7 24  1  0
  4 25  1  0
 24 25  1  0
M  END
