piperidine-amides-11647-covalent
     RDKit          3D

 28 31  0  0  0  0  0  0  0  0999 V2000
    7.1060   -3.3260   19.3230 C   0  0  0  0  0  0  0  0  0  0  0  0
    6.3890   -4.1590   20.2770 C   0  0  0  0  0  0  0  0  0  0  0  0
    5.3500   -4.7290   19.9490 O   0  0  0  0  0  0  0  0  0  0  0  0
    6.9330   -4.3630   21.5850 N   0  0  0  0  0  0  0  0  0  0  0  0
    7.6950   -3.3100   22.2100 C   0  0  0  0  0  0  0  0  0  0  0  0
    6.9000   -2.6970   23.3190 C   0  0  0  0  0  0  0  0  0  0  0  0
    6.4860   -3.8260   24.2330 C   0  0  0  0  0  0  0  0  0  0  0  0
    5.7600   -3.2840   25.4070 C   0  0  0  0  0  0  0  0  0  0  0  0
    4.5290   -3.0940   25.4010 O   0  0  0  0  0  0  0  0  0  0  0  0
    6.5050   -2.9830   26.5660 N   0  0  0  0  0  0  0  0  0  0  0  0
    6.4370   -1.6620   27.1420 C   0  0  0  0  0  0  0  0  0  0  0  0
    7.0310   -1.5930   28.5020 C   0  0  0  0  0  0  0  0  0  0  0  0
    7.0280   -0.3990   29.1690 C   0  0  0  0  0  0  0  0  0  0  0  0
    6.4620    0.7320   28.5450 C   0  0  0  0  0  0  0  0  0  0  0  0
    5.9010    0.6840   27.2670 C   0  0  0  0  0  0  0  0  0  0  0  0
    5.3290    1.8830   26.6670 C   0  0  0  0  0  0  0  0  0  0  0  0
    5.1990    3.1630   27.1310 C   0  0  0  0  0  0  0  0  0  0  0  0
    4.5890    3.7970   26.1240 N   0  0  0  0  0  0  0  0  0  0  0  0
    4.2350    5.1770   26.1480 C   0  0  0  0  0  0  0  0  0  0  0  0
    3.6070    5.6360   24.9970 C   0  0  0  0  0  0  0  0  0  0  0  0
    3.3740    4.6890   23.8930 C   0  0  0  0  0  0  0  0  0  0  0  0
    3.7480    3.3460   23.9360 C   0  0  0  0  0  0  0  0  0  0  0  0
    3.4900    2.5200   22.8490 C   0  0  0  0  0  0  0  0  0  0  0  0
    4.3640    2.8870   25.0680 C   0  0  0  0  0  0  0  0  0  0  0  0
    4.8350    1.6900   25.4240 N   0  0  0  0  0  0  0  0  0  0  0  0
    5.8980   -0.5090   26.5840 C   0  0  0  0  0  0  0  0  0  0  0  0
    5.7230   -4.8940   23.5170 C   0  0  0  0  0  0  0  0  0  0  0  0
    6.4870   -5.4780   22.3790 C   0  0  0  0  0  0  0  0  0  0  0  0
  1  2  1  0
  2  3  2  0
  2  4  1  0
  4  5  1  0
  5  6  1  0
  6  7  1  0
  7  8  1  0
  8  9  2  0
  8 10  1  0
 10 11  1  0
 11 12  2  0
 12 13  1  0
 13 14  2  0
 14 15  1  0
 15 16  1  0
 16 17  2  0
 17 18  1  0
 18 19  1  0
 19 20  2  0
 20 21  1  0
 21 22  2  0
 22 23  1  0
 18 24  1  0
 22 24  1  0
 16 25  1  0
 24 25  2  0
 11 26  1  0
 15 26  2  0
  7 27  1  0
  4 28  1  0
 27 28  1  0
M  END
