piperidine-amides-6885-covalent
     RDKit          3D

 22 23  0  0  0  0  0  0  0  0999 V2000
    7.1170   -3.2510   19.2270 C   0  0  0  0  0  0  0  0  0  0  0  0
    6.3830   -4.0330   20.2320 C   0  0  0  0  0  0  0  0  0  0  0  0
    5.3360   -4.6390   19.9210 O   0  0  0  0  0  0  0  0  0  0  0  0
    6.8750   -4.1530   21.5370 N   0  0  0  0  0  0  0  0  0  0  0  0
    7.5810   -3.0370   22.1490 C   0  0  0  0  0  0  0  0  0  0  0  0
    6.9540   -2.7210   23.5250 C   0  0  0  0  0  0  0  0  0  0  0  0
    5.5640   -3.3410   23.5620 C   0  0  0  0  0  0  0  0  0  0  0  0
    4.8390   -3.0760   24.8360 C   0  0  0  0  0  0  0  0  0  0  0  0
    3.8710   -3.8150   25.1010 O   0  0  0  0  0  0  0  0  0  0  0  0
    5.1920   -2.0420   25.7440 N   0  0  0  0  0  0  0  0  0  0  0  0
    5.4760   -2.4400   27.0900 C   0  0  1  0  0  0  0  0  0  0  0  0
    4.4110   -3.3430   27.6580 C   0  0  0  0  0  0  0  0  0  0  0  0
    6.5120   -3.3450   26.9040 C   0  0  0  0  0  0  0  0  0  0  0  0
    6.6480   -3.9850   25.7780 C   0  0  0  0  0  0  0  0  0  0  0  0
    7.6280   -4.8210   25.6990 C   0  0  0  0  0  0  0  0  0  0  0  0
    8.4200   -4.9710   26.7640 C   0  0  0  0  0  0  0  0  0  0  0  0
    9.6610   -6.1820   26.3470 Br  0  0  0  0  0  0  0  0  0  0  0  0
    8.4780   -4.3580   28.1700 C   0  0  0  0  0  0  0  0  0  0  0  0
    7.2840   -3.4680   27.9810 C   0  0  0  0  0  0  0  0  0  0  0  0
    6.9290   -2.6860   29.0250 F   0  0  0  0  0  0  0  0  0  0  0  0
    5.5380   -4.8080   23.3420 C   0  0  0  0  0  0  0  0  0  0  0  0
    6.4790   -5.2540   22.3300 C   0  0  0  0  0  0  0  0  0  0  0  0
  1  2  1  0
  2  3  2  0
  2  4  1  0
  4  5  1  0
  5  6  1  0
  6  7  1  0
  7  8  1  0
  8  9  2  0
  8 10  1  0
 10 11  1  0
 11 12  1  6
 11 13  1  0
 13 14  2  0
 14 15  1  0
 15 16  2  0
 16 17  1  0
 16 18  1  0
 13 19  1  0
 18 19  2  0
 19 20  1  0
  7 21  1  0
  4 22  1  0
 21 22  1  0
M  END
