piperidine-amides-24442-covalent
     RDKit          3D

 23 24  0  0  0  0  0  0  0  0999 V2000
    7.0450   -3.3230   19.3190 C   0  0  0  0  0  0  0  0  0  0  0  0
    6.3490   -4.1860   20.2900 C   0  0  0  0  0  0  0  0  0  0  0  0
    5.3350   -4.8340   19.9610 O   0  0  0  0  0  0  0  0  0  0  0  0
    6.8390   -4.3160   21.5840 N   0  0  0  0  0  0  0  0  0  0  0  0
    6.6600   -5.5690   22.2940 C   0  0  0  0  0  0  0  0  0  0  0  0
    5.8460   -5.2840   23.5700 C   0  0  0  0  0  0  0  0  0  0  0  0
    6.0340   -3.8210   23.8860 C   0  0  0  0  0  0  0  0  0  0  0  0
    5.5510   -3.4640   25.2420 C   0  0  0  0  0  0  0  0  0  0  0  0
    4.4450   -2.8910   25.3030 O   0  0  0  0  0  0  0  0  0  0  0  0
    6.2750   -3.7290   26.4370 N   0  0  0  0  0  0  0  0  0  0  0  0
    5.8570   -2.9610   27.5810 C   0  0  0  0  0  0  0  0  0  0  0  0
    6.3950   -3.5380   28.8650 C   0  0  0  0  0  0  0  0  0  0  0  0
    6.8940   -4.8020   28.8870 C   0  0  0  0  0  0  0  0  0  0  0  0
    6.4900   -5.6190   27.8960 C   0  0  1  0  0  0  0  0  0  0  0  0
    5.2070   -6.1530   28.1380 C   0  0  2  0  0  0  0  0  0  0  0  0
    5.1990   -7.4960   28.3100 O   0  0  0  0  0  0  0  0  0  0  0  0
    4.2460   -6.0250   27.1570 C   0  0  0  0  0  0  0  0  0  0  0  0
    3.0550   -6.5950   27.5710 F   0  0  0  0  0  0  0  0  0  0  0  0
    4.0660   -4.6990   26.8140 F   0  0  0  0  0  0  0  0  0  0  0  0
    4.6440   -6.8000   26.0710 F   0  0  0  0  0  0  0  0  0  0  0  0
    6.7630   -5.1050   26.6320 C   0  0  0  0  0  0  0  0  0  0  0  0
    7.4040   -3.3810   23.6270 C   0  0  0  0  0  0  0  0  0  0  0  0
    7.6580   -3.2800   22.1790 C   0  0  0  0  0  0  0  0  0  0  0  0
  1  2  1  0
  2  3  2  0
  2  4  1  0
  4  5  1  0
  5  6  1  0
  6  7  1  0
  7  8  1  0
  8  9  2  0
  8 10  1  0
 10 11  1  0
 11 12  1  0
 12 13  1  0
 14 13  1  1
 14 15  1  0
 15 16  1  6
 15 17  1  0
 17 18  1  0
 17 19  1  0
 17 20  1  0
 10 21  1  0
 14 21  1  0
  7 22  1  0
  4 23  1  0
 22 23  1  0
M  END
