piperidine-amides-10887-covalent
     RDKit          3D

 22 23  0  0  0  0  0  0  0  0999 V2000
    7.0710   -3.2950   19.2840 C   0  0  0  0  0  0  0  0  0  0  0  0
    6.3640   -4.0720   20.3040 C   0  0  0  0  0  0  0  0  0  0  0  0
    5.3710   -4.7400   19.9620 O   0  0  0  0  0  0  0  0  0  0  0  0
    6.8010   -4.1160   21.6480 N   0  0  0  0  0  0  0  0  0  0  0  0
    7.7250   -3.1220   22.1790 C   0  0  0  0  0  0  0  0  0  0  0  0
    7.4510   -3.0190   23.6540 C   0  0  0  0  0  0  0  0  0  0  0  0
    6.1020   -3.5850   23.9610 C   0  0  0  0  0  0  0  0  0  0  0  0
    5.5740   -3.2830   25.3200 C   0  0  0  0  0  0  0  0  0  0  0  0
    4.3890   -2.8580   25.4360 O   0  0  0  0  0  0  0  0  0  0  0  0
    6.3000   -3.4300   26.5290 N   0  0  0  0  0  0  0  0  0  0  0  0
    6.1120   -4.6310   27.3960 C   0  0  0  0  0  0  0  0  0  0  0  0
    4.7910   -4.5550   28.0000 C   0  0  0  0  0  0  0  0  0  0  0  0
    4.1260   -5.7580   28.5470 C   0  0  0  0  0  0  0  0  0  0  0  0
    2.8680   -6.1740   27.8240 C   0  0  0  0  0  0  0  0  0  0  0  0
    2.4200   -5.4460   26.7310 F   0  0  0  0  0  0  0  0  0  0  0  0
    2.1200   -7.3840   28.3180 C   0  0  0  0  0  0  0  0  0  0  0  0
    2.7310   -8.0360   29.4890 C   0  0  0  0  0  0  0  0  0  0  0  0
    3.8800   -7.6080   30.1020 C   0  0  0  0  0  0  0  0  0  0  0  0
    4.5750   -6.4790   29.6370 C   0  0  0  0  0  0  0  0  0  0  0  0
    5.7200   -6.0580   30.2580 F   0  0  0  0  0  0  0  0  0  0  0  0
    6.0290   -5.0980   23.7090 C   0  0  0  0  0  0  0  0  0  0  0  0
    6.6670   -5.3850   22.3390 C   0  0  0  0  0  0  0  0  0  0  0  0
  1  2  1  0
  2  3  2  0
  2  4  1  0
  4  5  1  0
  5  6  1  0
  6  7  1  0
  7  8  1  0
  8  9  2  0
  8 10  1  0
 10 11  1  0
 11 12  1  0
 12 13  1  0
 13 14  2  0
 14 15  1  0
 14 16  1  0
 16 17  2  0
 17 18  1  0
 13 19  1  0
 18 19  2  0
 19 20  1  0
  7 21  1  0
  4 22  1  0
 21 22  1  0
M  END
