piperidine-amides-1023-covalent
     RDKit          3D

 24 25  0  0  0  0  0  0  0  0999 V2000
    7.1600   -3.2540   19.1650 C   0  0  0  0  0  0  0  0  0  0  0  0
    6.3720   -4.0180   20.1740 C   0  0  0  0  0  0  0  0  0  0  0  0
    5.2730   -4.4940   19.8570 O   0  0  0  0  0  0  0  0  0  0  0  0
    6.9150   -4.2430   21.4530 N   0  0  0  0  0  0  0  0  0  0  0  0
    6.5110   -5.3910   22.2240 C   0  0  0  0  0  0  0  0  0  0  0  0
    5.6780   -4.8400   23.3830 C   0  0  0  0  0  0  0  0  0  0  0  0
    6.4790   -3.7170   23.9460 C   0  0  0  0  0  0  0  0  0  0  0  0
    5.8400   -3.0410   25.0780 C   0  0  0  0  0  0  0  0  0  0  0  0
    4.6520   -2.7130   24.9700 O   0  0  0  0  0  0  0  0  0  0  0  0
    6.6200   -2.8300   26.1950 N   0  0  0  0  0  0  0  0  0  0  0  0
    7.1250   -3.8970   26.9500 C   0  0  2  0  0  0  0  0  0  0  0  0
    6.6960   -5.1930   26.7410 C   0  0  0  0  0  0  0  0  0  0  0  0
    6.8270   -3.5700   28.3960 C   0  0  1  0  0  0  0  0  0  0  0  0
    6.4140   -2.3310   28.8580 O   0  0  0  0  0  0  0  0  0  0  0  0
    6.1530   -4.5860   29.0160 C   0  0  0  0  0  0  0  0  0  0  0  0
    4.8580   -4.4170   29.7260 C   0  0  0  0  0  0  0  0  0  0  0  0
    4.0900   -2.8350   29.8130 Cl  0  0  0  0  0  0  0  0  0  0  0  0
    4.1740   -5.6130   30.3950 C   0  0  0  0  0  0  0  0  0  0  0  0
    4.9130   -6.9450   30.2700 C   0  0  0  0  0  0  0  0  0  0  0  0
    6.1110   -7.0100   29.5890 C   0  0  0  0  0  0  0  0  0  0  0  0
    6.7250   -5.8110   28.9610 C   0  0  0  0  0  0  0  0  0  0  0  0
    8.2510   -6.0450   28.1190 Cl  0  0  0  0  0  0  0  0  0  0  0  0
    6.8830   -2.6690   22.9730 C   0  0  0  0  0  0  0  0  0  0  0  0
    7.7390   -3.2540   22.0950 C   0  0  0  0  0  0  0  0  0  0  0  0
  1  2  1  0
  2  3  2  0
  2  4  1  0
  4  5  1  0
  5  6  1  0
  6  7  1  0
  7  8  1  0
  8  9  2  0
  8 10  1  0
 10 11  1  0
 11 12  1  6
 11 13  1  0
 13 14  1  6
 13 15  1  0
 15 16  2  0
 16 17  1  0
 16 18  1  0
 18 19  2  0
 19 20  1  0
 15 21  1  0
 20 21  2  0
 21 22  1  0
  7 23  1  0
  4 24  1  0
 23 24  1  0
M  END
