piperidine-amides-6758-covalent
     RDKit          3D

 23 24  0  0  0  0  0  0  0  0999 V2000
    6.9980   -3.2170   19.2340 C   0  0  0  0  0  0  0  0  0  0  0  0
    6.2890   -4.0560   20.2130 C   0  0  0  0  0  0  0  0  0  0  0  0
    5.2390   -4.6380   19.8920 O   0  0  0  0  0  0  0  0  0  0  0  0
    6.7740   -4.2740   21.5020 N   0  0  0  0  0  0  0  0  0  0  0  0
    7.5480   -3.2120   22.1280 C   0  0  0  0  0  0  0  0  0  0  0  0
    6.7110   -2.6670   23.2810 C   0  0  0  0  0  0  0  0  0  0  0  0
    6.3190   -3.8700   24.1050 C   0  0  0  0  0  0  0  0  0  0  0  0
    5.5560   -3.4340   25.2710 C   0  0  0  0  0  0  0  0  0  0  0  0
    4.6620   -2.5720   25.1310 O   0  0  0  0  0  0  0  0  0  0  0  0
    5.8630   -4.0220   26.5030 N   0  0  0  0  0  0  0  0  0  0  0  0
    7.2250   -4.0770   26.8690 C   0  0  0  0  0  0  0  0  0  0  0  0
    7.3100   -3.8100   28.3420 C   0  0  0  0  0  0  0  0  0  0  0  0
    6.8560   -2.6080   28.8340 C   0  0  0  0  0  0  0  0  0  0  0  0
    7.6530   -1.5810   29.1350 C   0  0  0  0  0  0  0  0  0  0  0  0
    7.0800   -0.4470   29.6230 C   0  0  0  0  0  0  0  0  0  0  0  0
    5.7220   -0.3520   29.8000 C   0  0  0  0  0  0  0  0  0  0  0  0
    4.5910   -1.3650   29.5360 C   0  0  0  0  0  0  0  0  0  0  0  0
    5.4980   -2.4960   29.0180 C   0  0  0  0  0  0  0  0  0  0  0  0
    4.4370   -3.7980   28.6470 S   0  0  0  0  0  0  0  0  0  0  0  0
    2.9900   -3.3240   29.4300 C   0  0  0  0  0  0  0  0  0  0  0  0
    2.9030   -3.0070   30.8600 C   0  0  0  0  0  0  0  0  0  0  0  0
    5.4140   -4.7580   23.3130 C   0  0  0  0  0  0  0  0  0  0  0  0
    6.0690   -5.2720   22.2500 C   0  0  0  0  0  0  0  0  0  0  0  0
  1  2  1  0
  2  3  2  0
  2  4  1  0
  4  5  1  0
  5  6  1  0
  6  7  1  0
  7  8  1  0
  8  9  2  0
  8 10  1  0
 10 11  1  0
 11 12  1  0
 12 13  1  0
 13 14  2  0
 14 15  1  0
 15 16  2  0
 16 17  1  0
 13 18  1  0
 17 18  2  0
 18 19  1  0
 19 20  1  0
 20 21  1  0
  7 22  1  0
  4 23  1  0
 22 23  1  0
M  END
