piperidine-amides-30178-covalent
     RDKit          3D

 27 30  0  0  0  0  0  0  0  0999 V2000
    7.0140   -3.3480   19.3490 C   0  0  0  0  0  0  0  0  0  0  0  0
    6.3030   -4.2000   20.3030 C   0  0  0  0  0  0  0  0  0  0  0  0
    5.3130   -4.8320   19.9570 O   0  0  0  0  0  0  0  0  0  0  0  0
    6.7810   -4.3360   21.6440 N   0  0  0  0  0  0  0  0  0  0  0  0
    7.6050   -3.2930   22.1840 C   0  0  0  0  0  0  0  0  0  0  0  0
    7.3760   -3.2420   23.6470 C   0  0  0  0  0  0  0  0  0  0  0  0
    6.0390   -3.8460   23.9080 C   0  0  0  0  0  0  0  0  0  0  0  0
    5.5590   -3.4840   25.2840 C   0  0  0  0  0  0  0  0  0  0  0  0
    4.5100   -2.8360   25.4260 O   0  0  0  0  0  0  0  0  0  0  0  0
    6.2790   -3.8470   26.4570 N   0  0  0  0  0  0  0  0  0  0  0  0
    6.9830   -5.1140   26.5120 C   0  0  0  0  0  0  0  0  0  0  0  0
    7.0230   -5.3970   27.9930 C   0  0  0  0  0  0  0  0  0  0  0  0
    6.2280   -4.5000   28.6510 C   0  0  0  0  0  0  0  0  0  0  0  0
    5.6490   -3.5620   27.8040 C   0  0  2  0  0  0  0  0  0  0  0  0
    4.2650   -3.4810   27.7470 C   0  0  0  0  0  0  0  0  0  0  0  0
    3.4360   -4.6030   27.6990 N   0  0  0  0  0  0  0  0  0  0  0  0
    2.1620   -4.0140   27.6660 C   0  0  0  0  0  0  0  0  0  0  0  0
    1.0660   -4.8540   27.6120 C   0  0  0  0  0  0  0  0  0  0  0  0
    0.4010   -5.2620   26.5610 O   0  0  0  0  0  0  0  0  0  0  0  0
    0.7370   -5.2340   28.8890 N   0  0  0  0  0  0  0  0  0  0  0  0
   -0.1900   -6.3470   29.0770 C   0  0  0  0  0  0  0  0  0  0  0  0
   -0.2780   -7.2900   29.9890 C   0  0  0  0  0  0  0  0  0  0  0  0
   -1.0890   -6.3060   30.4350 C   0  0  0  0  0  0  0  0  0  0  0  0
    2.2320   -2.6330   27.6930 N   0  0  0  0  0  0  0  0  0  0  0  0
    3.4820   -2.3330   27.7400 O   0  0  0  0  0  0  0  0  0  0  0  0
    6.0240   -5.3300   23.6010 C   0  0  0  0  0  0  0  0  0  0  0  0
    6.6390   -5.5830   22.3600 C   0  0  0  0  0  0  0  0  0  0  0  0
  1  2  1  0
  2  3  2  0
  2  4  1  0
  4  5  1  0
  5  6  1  0
  6  7  1  0
  7  8  1  0
  8  9  2  0
  8 10  1  0
 10 11  1  0
 11 12  1  0
 12 13  1  0
 10 14  1  0
 13 14  1  0
 14 15  1  6
 15 16  2  0
 16 17  1  0
 17 18  1  0
 18 19  2  0
 18 20  1  0
 20 21  1  0
 21 22  1  0
 21 23  1  0
 22 23  1  0
 17 24  2  0
 15 25  1  0
 24 25  1  0
  7 26  1  0
  4 27  1  0
 26 27  1  0
M  END
