piperidine-amides-8544-covalent
     RDKit          3D

 24 26  0  0  0  0  0  0  0  0999 V2000
    7.0760   -3.3420   19.3180 C   0  0  0  0  0  0  0  0  0  0  0  0
    6.4210   -4.1920   20.3060 C   0  0  0  0  0  0  0  0  0  0  0  0
    5.3760   -4.7830   19.9690 O   0  0  0  0  0  0  0  0  0  0  0  0
    7.0050   -4.3780   21.5840 N   0  0  0  0  0  0  0  0  0  0  0  0
    7.6660   -3.2600   22.1940 C   0  0  0  0  0  0  0  0  0  0  0  0
    6.7570   -2.7040   23.2430 C   0  0  0  0  0  0  0  0  0  0  0  0
    6.5430   -3.8040   24.2520 C   0  0  0  0  0  0  0  0  0  0  0  0
    5.7380   -3.2730   25.4010 C   0  0  0  0  0  0  0  0  0  0  0  0
    4.5280   -3.1570   25.2120 O   0  0  0  0  0  0  0  0  0  0  0  0
    6.4030   -2.9570   26.5810 N   0  0  0  0  0  0  0  0  0  0  0  0
    6.0040   -1.9020   27.4530 C   0  0  0  0  0  0  0  0  0  0  0  0
    7.0080   -1.4310   28.3110 C   0  0  0  0  0  0  0  0  0  0  0  0
    6.6520   -0.5440   29.2840 C   0  0  0  0  0  0  0  0  0  0  0  0
    5.7840    0.4750   28.8280 N   0  0  0  0  0  0  0  0  0  0  0  0
    4.7270    0.7240   29.7310 C   0  0  0  0  0  0  0  0  0  0  0  0
    4.9620    1.8230   30.7200 C   0  0  0  0  0  0  0  0  0  0  0  0
    4.3540    3.2400   30.6060 C   0  0  0  0  0  0  0  0  0  0  0  0
    4.7840    4.0730   31.7430 C   0  0  0  0  0  0  0  0  0  0  0  0
    5.8120    3.2480   32.8380 S   0  0  0  0  0  0  0  0  0  0  0  0
    5.8080    1.6940   31.9370 C   0  0  0  0  0  0  0  0  0  0  0  0
    5.8150    0.6110   27.4010 C   0  0  0  0  0  0  0  0  0  0  0  0
    5.9800   -0.5800   26.7050 C   0  0  0  0  0  0  0  0  0  0  0  0
    5.7790   -4.9160   23.5880 C   0  0  0  0  0  0  0  0  0  0  0  0
    6.4820   -5.4600   22.3710 C   0  0  0  0  0  0  0  0  0  0  0  0
  1  2  1  0
  2  3  2  0
  2  4  1  0
  4  5  1  0
  5  6  1  0
  6  7  1  0
  7  8  1  0
  8  9  2  0
  8 10  1  0
 10 11  1  0
 11 12  1  0
 12 13  1  0
 13 14  1  0
 14 15  1  0
 15 16  1  0
 16 17  1  0
 17 18  2  0
 18 19  1  0
 16 20  2  0
 19 20  1  0
 14 21  1  0
 11 22  1  0
 21 22  1  0
  7 23  1  0
  4 24  1  0
 23 24  1  0
M  END
