piperidine-amides-32950-covalent
     RDKit          3D

 26 27  0  0  0  0  0  0  0  0999 V2000
    7.1810   -3.2200   19.1720 C   0  0  0  0  0  0  0  0  0  0  0  0
    6.3920   -3.9600   20.1940 C   0  0  0  0  0  0  0  0  0  0  0  0
    5.3090   -4.4800   19.8690 O   0  0  0  0  0  0  0  0  0  0  0  0
    6.9210   -4.0970   21.4910 N   0  0  0  0  0  0  0  0  0  0  0  0
    7.7310   -3.0660   22.0990 C   0  0  0  0  0  0  0  0  0  0  0  0
    6.9380   -2.4770   23.2760 C   0  0  0  0  0  0  0  0  0  0  0  0
    6.5040   -3.5930   24.1800 C   0  0  0  0  0  0  0  0  0  0  0  0
    5.9510   -3.0870   25.4640 C   0  0  0  0  0  0  0  0  0  0  0  0
    4.7600   -2.7410   25.4350 O   0  0  0  0  0  0  0  0  0  0  0  0
    6.7410   -3.0030   26.6360 N   0  0  0  0  0  0  0  0  0  0  0  0
    7.8050   -2.0780   26.7510 C   0  0  0  0  0  0  0  0  0  0  0  0
    6.1930   -3.4320   27.8930 C   0  0  0  0  0  0  0  0  0  0  0  0
    6.6890   -4.5800   28.5380 C   0  0  1  0  0  0  0  0  0  0  0  0
    5.8260   -5.6620   28.5430 O   0  0  0  0  0  0  0  0  0  0  0  0
    7.9420   -4.8800   28.1390 C   0  0  0  0  0  0  0  0  0  0  0  0
    8.1320   -4.8960   26.8210 O   0  0  0  0  0  0  0  0  0  0  0  0
    7.1260   -5.5360   26.0630 C   0  0  0  0  0  0  0  0  0  0  0  0
    7.5920   -6.4270   24.9800 C   0  0  0  0  0  0  0  0  0  0  0  0
    6.5200   -7.0990   24.2040 C   0  0  0  0  0  0  0  0  0  0  0  0
    7.0480   -8.1340   22.9580 Cl  0  0  0  0  0  0  0  0  0  0  0  0
    5.1910   -6.9140   24.4700 C   0  0  0  0  0  0  0  0  0  0  0  0
    4.5320   -6.0730   25.5030 C   0  0  0  0  0  0  0  0  0  0  0  0
    2.7750   -6.0000   25.6510 Cl  0  0  0  0  0  0  0  0  0  0  0  0
    5.6470   -5.3760   26.3000 C   0  0  0  0  0  0  0  0  0  0  0  0
    5.5690   -4.4130   23.3880 C   0  0  0  0  0  0  0  0  0  0  0  0
    6.4290   -5.1300   22.3370 C   0  0  0  0  0  0  0  0  0  0  0  0
  1  2  1  0
  2  3  2  0
  2  4  1  0
  4  5  1  0
  5  6  1  0
  6  7  1  0
  7  8  1  0
  8  9  2  0
  8 10  1  0
 10 11  1  0
 10 12  1  0
 12 13  1  0
 13 14  1  6
 13 15  1  0
 15 16  1  0
 16 17  1  0
 17 18  2  0
 18 19  1  0
 19 20  1  0
 19 21  2  0
 21 22  1  0
 22 23  1  0
 17 24  1  0
 22 24  2  0
  7 25  1  0
  4 26  1  0
 25 26  1  0
M  END
