piperidine-amides-34301-covalent
     RDKit          3D

 31 34  0  0  0  0  0  0  0  0999 V2000
    7.0090   -3.3110   19.3230 C   0  0  0  0  0  0  0  0  0  0  0  0
    6.2250   -4.1470   20.2480 C   0  0  0  0  0  0  0  0  0  0  0  0
    5.1690   -4.6750   19.8800 O   0  0  0  0  0  0  0  0  0  0  0  0
    6.6520   -4.4150   21.5370 N   0  0  0  0  0  0  0  0  0  0  0  0
    7.5910   -3.5330   22.1580 C   0  0  0  0  0  0  0  0  0  0  0  0
    6.9170   -3.0190   23.4210 C   0  0  0  0  0  0  0  0  0  0  0  0
    5.7730   -3.9480   23.8000 C   0  0  0  0  0  0  0  0  0  0  0  0
    5.3550   -3.7350   25.2060 C   0  0  0  0  0  0  0  0  0  0  0  0
    4.2060   -3.2860   25.3980 O   0  0  0  0  0  0  0  0  0  0  0  0
    6.2070   -4.0100   26.3070 N   0  0  0  0  0  0  0  0  0  0  0  0
    5.8730   -3.3300   27.5290 C   0  0  0  0  0  0  0  0  0  0  0  0
    5.5040   -4.3540   28.5630 C   0  0  0  0  0  0  0  0  0  0  0  0
    6.4490   -5.2720   28.8790 C   0  0  0  0  0  0  0  0  0  0  0  0
    7.1970   -5.7440   27.8520 C   0  0  0  0  0  0  0  0  0  0  0  0
    8.1080   -4.9190   27.2220 C   0  0  0  0  0  0  0  0  0  0  0  0
    7.7000   -3.9940   26.2630 C   0  0  1  0  0  0  0  0  0  0  0  0
    8.2540   -4.1200   24.8580 C   0  0  0  0  0  0  0  0  0  0  0  0
    7.7960   -2.7200   25.1270 C   0  0  0  0  0  0  0  0  0  0  0  0
    8.7400   -1.6990   24.5820 C   0  0  0  0  0  0  0  0  0  0  0  0
    9.4600   -1.9910   23.5080 N   0  0  0  0  0  0  0  0  0  0  0  0
   10.6990   -1.2390   23.4850 C   0  0  0  0  0  0  0  0  0  0  0  0
   11.5670   -1.9710   24.2980 C   0  0  0  0  0  0  0  0  0  0  0  0
   12.9030   -1.6690   24.4440 C   0  0  0  0  0  0  0  0  0  0  0  0
   13.7970   -2.4870   25.3240 C   0  0  0  0  0  0  0  0  0  0  0  0
   13.2200   -3.6250   26.0290 C   0  0  0  0  0  0  0  0  0  0  0  0
   11.7630   -3.9110   25.8380 C   0  0  0  0  0  0  0  0  0  0  0  0
   11.0490   -3.0950   25.0150 C   0  0  0  0  0  0  0  0  0  0  0  0
    9.8360   -3.3660   23.3750 C   0  0  0  0  0  0  0  0  0  0  0  0
    9.7230   -4.0270   24.6090 C   0  0  0  0  0  0  0  0  0  0  0  0
    6.1700   -5.4290   23.6030 C   0  0  0  0  0  0  0  0  0  0  0  0
    6.5180   -5.7130   22.1630 C   0  0  0  0  0  0  0  0  0  0  0  0
  1  2  1  0
  2  3  2  0
  2  4  1  0
  4  5  1  0
  5  6  1  0
  6  7  1  0
  7  8  1  0
  8  9  2  0
  8 10  1  0
 10 11  1  0
 11 12  1  0
 12 13  1  0
 13 14  1  0
 14 15  1  0
 10 16  1  0
 15 16  1  0
 16 17  1  6
 17 18  1  0
 18 19  1  0
 19 20  1  0
 20 21  1  0
 21 22  1  0
 22 23  2  0
 23 24  1  0
 24 25  2  0
 25 26  1  0
 22 27  1  0
 26 27  2  0
 20 28  1  0
 17 29  1  0
 28 29  1  0
  7 30  1  0
  4 31  1  0
 30 31  1  0
M  END
