piperidine-amides-10035-covalent
     RDKit          3D

 26 28  0  0  0  0  0  0  0  0999 V2000
    7.1080   -3.3370   19.3030 C   0  0  0  0  0  0  0  0  0  0  0  0
    6.3670   -4.1120   20.2940 C   0  0  0  0  0  0  0  0  0  0  0  0
    5.2880   -4.6340   19.9150 O   0  0  0  0  0  0  0  0  0  0  0  0
    6.8960   -4.2900   21.5710 N   0  0  0  0  0  0  0  0  0  0  0  0
    7.7290   -3.2940   22.2060 C   0  0  0  0  0  0  0  0  0  0  0  0
    7.0070   -2.7770   23.4100 C   0  0  0  0  0  0  0  0  0  0  0  0
    6.4800   -3.9010   24.2540 C   0  0  0  0  0  0  0  0  0  0  0  0
    5.7890   -3.3620   25.4500 C   0  0  0  0  0  0  0  0  0  0  0  0
    4.5490   -3.2090   25.3790 O   0  0  0  0  0  0  0  0  0  0  0  0
    6.4370   -3.0160   26.6580 N   0  0  0  0  0  0  0  0  0  0  0  0
    6.3690   -1.6540   27.1490 C   0  0  0  0  0  0  0  0  0  0  0  0
    6.7940   -1.2810   28.5710 C   0  0  0  0  0  0  0  0  0  0  0  0
    6.7290    0.0120   29.0890 C   0  0  0  0  0  0  0  0  0  0  0  0
    7.2150    0.4100   30.7560 S   0  0  0  0  0  0  0  0  0  0  0  0
    7.9660    1.6900   30.8260 O   0  0  0  0  0  0  0  0  0  0  0  0
    7.8310   -0.7140   31.4640 O   0  0  0  0  0  0  0  0  0  0  0  0
    5.6510    0.6800   31.4600 N   0  0  0  0  0  0  0  0  0  0  0  0
    4.7940   -0.3430   31.6310 C   0  0  0  0  0  0  0  0  0  0  0  0
    3.6150   -0.1550   31.9980 C   0  0  0  0  0  0  0  0  0  0  0  0
    4.3440   -0.7050   33.0990 C   0  0  0  0  0  0  0  0  0  0  0  0
    6.2740    1.0870   28.3510 C   0  0  0  0  0  0  0  0  0  0  0  0
    5.8070    0.9740   26.9300 C   0  0  0  0  0  0  0  0  0  0  0  0
    5.9090   -0.4550   26.4610 C   0  0  0  0  0  0  0  0  0  0  0  0
    5.4000   -0.4780   24.9900 O   0  0  0  0  0  0  0  0  0  0  0  0
    5.5850   -4.8540   23.4500 C   0  0  0  0  0  0  0  0  0  0  0  0
    6.4810   -5.4300   22.3690 C   0  0  0  0  0  0  0  0  0  0  0  0
  1  2  1  0
  2  3  2  0
  2  4  1  0
  4  5  1  0
  5  6  1  0
  6  7  1  0
  7  8  1  0
  8  9  2  0
  8 10  1  0
 10 11  1  0
 11 12  2  0
 12 13  1  0
 13 14  1  0
 14 15  2  0
 14 16  2  0
 14 17  1  0
 17 18  1  0
 18 19  1  0
 18 20  1  0
 19 20  1  0
 13 21  2  0
 21 22  1  0
 11 23  1  0
 22 23  2  0
 23 24  1  0
  7 25  1  0
  4 26  1  0
 25 26  1  0
M  END
