piperidine-amides-28797-covalent
     RDKit          3D

 27 29  0  0  0  0  0  0  0  0999 V2000
    7.0650   -3.2830   19.2700 C   0  0  0  0  0  0  0  0  0  0  0  0
    6.3510   -4.0580   20.2870 C   0  0  0  0  0  0  0  0  0  0  0  0
    5.3280   -4.6710   19.9310 O   0  0  0  0  0  0  0  0  0  0  0  0
    6.8330   -4.1440   21.6200 N   0  0  0  0  0  0  0  0  0  0  0  0
    6.5940   -5.3590   22.3530 C   0  0  0  0  0  0  0  0  0  0  0  0
    6.1000   -5.0400   23.7370 C   0  0  0  0  0  0  0  0  0  0  0  0
    5.9270   -3.5370   23.8170 C   0  0  0  0  0  0  0  0  0  0  0  0
    5.3250   -3.1350   25.1390 C   0  0  0  0  0  0  0  0  0  0  0  0
    4.1600   -3.4890   25.3070 O   0  0  0  0  0  0  0  0  0  0  0  0
    6.0580   -2.4110   26.0830 N   0  0  0  0  0  0  0  0  0  0  0  0
    5.8630   -2.5790   27.4760 C   0  0  0  0  0  0  0  0  0  0  0  0
    7.0380   -2.8320   28.1330 C   0  0  0  0  0  0  0  0  0  0  0  0
    7.7080   -3.7640   27.4790 C   0  0  0  0  0  0  0  0  0  0  0  0
    7.8950   -4.9530   28.1120 C   0  0  0  0  0  0  0  0  0  0  0  0
    8.6270   -5.9910   27.3760 C   0  0  0  0  0  0  0  0  0  0  0  0
    9.1800   -5.8060   25.9680 C   0  0  0  0  0  0  0  0  0  0  0  0
    8.9290   -4.5010   25.3690 C   0  0  0  0  0  0  0  0  0  0  0  0
    8.1820   -3.5390   26.2050 C   0  0  0  0  0  0  0  0  0  0  0  0
    6.3350   -1.0170   25.8160 C   0  0  0  0  0  0  0  0  0  0  0  0
    5.3380   -0.1160   26.1190 C   0  0  0  0  0  0  0  0  0  0  0  0
    3.9970   -0.3600   25.8150 C   0  0  0  0  0  0  0  0  0  0  0  0
    2.8860    0.6100   26.1400 C   0  0  0  0  0  0  0  0  0  0  0  0
    3.2140    1.8930   26.8160 C   0  0  0  0  0  0  0  0  0  0  0  0
    4.6460    2.1710   27.1480 C   0  0  0  0  0  0  0  0  0  0  0  0
    5.6580    1.0850   26.7530 C   0  0  0  0  0  0  0  0  0  0  0  0
    7.1390   -2.7240   23.4770 C   0  0  0  0  0  0  0  0  0  0  0  0
    7.7100   -3.1220   22.1420 C   0  0  0  0  0  0  0  0  0  0  0  0
  1  2  1  0
  2  3  2  0
  2  4  1  0
  4  5  1  0
  5  6  1  0
  6  7  1  0
  7  8  1  0
  8  9  2  0
  8 10  1  0
 10 11  1  0
 11 12  1  0
 12 13  1  0
 13 14  2  0
 14 15  1  0
 15 16  2  0
 16 17  1  0
 13 18  1  0
 17 18  2  0
 10 19  1  0
 19 20  1  0
 20 21  2  0
 21 22  1  0
 22 23  2  0
 23 24  1  0
 20 25  1  0
 24 25  2  0
  7 26  1  0
  4 27  1  0
 26 27  1  0
M  END
