piperidine-amides-33638-covalent
     RDKit          3D

 30 33  0  0  0  0  0  0  0  0999 V2000
    7.1040   -3.3690   19.2890 C   0  0  0  0  0  0  0  0  0  0  0  0
    6.3910   -4.1510   20.3030 C   0  0  0  0  0  0  0  0  0  0  0  0
    5.3240   -4.7030   19.9480 O   0  0  0  0  0  0  0  0  0  0  0  0
    6.9440   -4.3150   21.5980 N   0  0  0  0  0  0  0  0  0  0  0  0
    6.4790   -5.3760   22.4220 C   0  0  0  0  0  0  0  0  0  0  0  0
    6.0070   -4.9670   23.7510 C   0  0  0  0  0  0  0  0  0  0  0  0
    6.6580   -3.7690   24.3530 C   0  0  0  0  0  0  0  0  0  0  0  0
    5.9070   -3.2220   25.5420 C   0  0  0  0  0  0  0  0  0  0  0  0
    5.3990   -2.0940   25.4380 O   0  0  0  0  0  0  0  0  0  0  0  0
    5.6770   -3.9210   26.7610 N   0  0  0  0  0  0  0  0  0  0  0  0
    4.3990   -4.1450   27.2730 C   0  0  0  0  0  0  0  0  0  0  0  0
    4.3030   -4.5170   28.6770 C   0  0  0  0  0  0  0  0  0  0  0  0
    5.2800   -5.1520   29.3220 N   0  0  0  0  0  0  0  0  0  0  0  0
    5.0360   -6.0750   30.4260 C   0  0  0  0  0  0  0  0  0  0  0  0
    3.7690   -6.4280   30.6340 N   0  0  0  0  0  0  0  0  0  0  0  0
    3.7690   -7.2600   31.6930 C   0  0  0  0  0  0  0  0  0  0  0  0
    2.4660   -7.8900   32.2540 C   0  0  0  0  0  0  0  0  0  0  0  0
    3.0200   -8.7060   33.3940 C   0  0  0  0  0  0  0  0  0  0  0  0
    1.7150   -9.3230   33.9450 C   0  0  0  0  0  0  0  0  0  0  0  0
    0.5710   -8.4430   34.3900 C   0  0  0  0  0  0  0  0  0  0  0  0
    1.9720  -10.4670   34.9070 C   0  0  0  0  0  0  0  0  0  0  0  0
    1.4710   -9.7980   32.5780 C   0  0  0  0  0  0  0  0  0  0  0  0
    4.3240   -8.8530   33.8220 C   0  0  0  0  0  0  0  0  0  0  0  0
    5.3530   -8.1990   33.1830 C   0  0  0  0  0  0  0  0  0  0  0  0
    5.0870   -7.3930   32.1100 C   0  0  0  0  0  0  0  0  0  0  0  0
    5.9540   -6.6250   31.3050 O   0  0  0  0  0  0  0  0  0  0  0  0
    6.5460   -4.9490   28.6900 C   0  0  0  0  0  0  0  0  0  0  0  0
    6.4530   -3.7390   27.9700 C   0  0  0  0  0  0  0  0  0  0  0  0
    6.8010   -2.7170   23.2950 C   0  0  0  0  0  0  0  0  0  0  0  0
    7.6760   -3.2230   22.1820 C   0  0  0  0  0  0  0  0  0  0  0  0
  1  2  1  0
  2  3  2  0
  2  4  1  0
  4  5  1  0
  5  6  1  0
  6  7  1  0
  7  8  1  0
  8  9  2  0
  8 10  1  0
 10 11  1  0
 11 12  1  0
 12 13  1  0
 13 14  1  0
 14 15  2  0
 15 16  1  0
 16 17  2  0
 17 18  1  0
 18 19  1  0
 19 20  1  0
 19 21  1  0
 19 22  1  0
 18 23  2  0
 23 24  1  0
 16 25  1  0
 24 25  2  0
 14 26  1  0
 25 26  1  0
 13 27  1  0
 10 28  1  0
 27 28  1  0
  7 29  1  0
  4 30  1  0
 29 30  1  0
M  END
