piperidine-amides-1109-covalent
     RDKit          3D

 23 24  0  0  0  0  0  0  0  0999 V2000
    7.1220   -3.3570   19.3500 C   0  0  0  0  0  0  0  0  0  0  0  0
    6.3900   -4.1890   20.3340 C   0  0  0  0  0  0  0  0  0  0  0  0
    5.3640   -4.7920   19.9740 O   0  0  0  0  0  0  0  0  0  0  0  0
    6.9240   -4.3060   21.6320 N   0  0  0  0  0  0  0  0  0  0  0  0
    7.7130   -3.2500   22.2060 C   0  0  0  0  0  0  0  0  0  0  0  0
    6.8670   -2.6710   23.3320 C   0  0  0  0  0  0  0  0  0  0  0  0
    6.5310   -3.8010   24.2410 C   0  0  0  0  0  0  0  0  0  0  0  0
    5.8210   -3.3390   25.4570 C   0  0  0  0  0  0  0  0  0  0  0  0
    4.5870   -3.3890   25.4170 O   0  0  0  0  0  0  0  0  0  0  0  0
    6.5270   -2.8630   26.5680 N   0  0  0  0  0  0  0  0  0  0  0  0
    6.4180   -1.5680   27.1410 C   0  0  0  0  0  0  0  0  0  0  0  0
    5.8180   -0.5000   26.4960 C   0  0  0  0  0  0  0  0  0  0  0  0
    5.7040    0.7720   27.0720 C   0  0  0  0  0  0  0  0  0  0  0  0
    6.2010    0.9730   28.3180 C   0  0  0  0  0  0  0  0  0  0  0  0
    6.0560    2.2360   28.8240 F   0  0  0  0  0  0  0  0  0  0  0  0
    6.8470   -0.1300   29.0400 C   0  0  0  0  0  0  0  0  0  0  0  0
    7.4100    0.4040   30.6400 S   0  0  0  0  0  0  0  0  0  0  0  0
    6.2890    0.0320   31.9360 C   0  0  0  0  0  0  0  0  0  0  0  0
    7.4770    1.9170   30.5590 O   0  0  0  0  0  0  0  0  0  0  0  0
    8.7710   -0.0980   30.9650 O   0  0  0  0  0  0  0  0  0  0  0  0
    6.9380   -1.3520   28.4430 C   0  0  0  0  0  0  0  0  0  0  0  0
    5.6870   -4.8670   23.5220 C   0  0  0  0  0  0  0  0  0  0  0  0
    6.4880   -5.4340   22.4090 C   0  0  0  0  0  0  0  0  0  0  0  0
  1  2  1  0
  2  3  2  0
  2  4  1  0
  4  5  1  0
  5  6  1  0
  6  7  1  0
  7  8  1  0
  8  9  2  0
  8 10  1  0
 10 11  1  0
 11 12  2  0
 12 13  1  0
 13 14  2  0
 14 15  1  0
 14 16  1  0
 16 17  1  0
 17 18  1  0
 17 19  2  0
 17 20  2  0
 11 21  1  0
 16 21  2  0
  7 22  1  0
  4 23  1  0
 22 23  1  0
M  END
