piperidine-amides-24576-covalent
     RDKit          3D

 24 26  0  0  0  0  0  0  0  0999 V2000
    7.0560   -3.3390   19.3920 C   0  0  0  0  0  0  0  0  0  0  0  0
    6.3940   -4.2280   20.3590 C   0  0  0  0  0  0  0  0  0  0  0  0
    5.4040   -4.9050   19.9980 O   0  0  0  0  0  0  0  0  0  0  0  0
    6.8850   -4.3620   21.6740 N   0  0  0  0  0  0  0  0  0  0  0  0
    6.6310   -5.6080   22.3720 C   0  0  0  0  0  0  0  0  0  0  0  0
    6.2980   -5.2870   23.8430 C   0  0  0  0  0  0  0  0  0  0  0  0
    6.1160   -3.7910   23.9200 C   0  0  0  0  0  0  0  0  0  0  0  0
    5.5850   -3.3150   25.2230 C   0  0  0  0  0  0  0  0  0  0  0  0
    4.6930   -2.4480   25.1790 O   0  0  0  0  0  0  0  0  0  0  0  0
    6.0270   -3.7960   26.4770 N   0  0  0  0  0  0  0  0  0  0  0  0
    6.3940   -2.8020   27.4410 C   0  0  0  0  0  0  0  0  0  0  0  0
    6.5540   -3.5930   28.7030 C   0  0  0  0  0  0  0  0  0  0  0  0
    5.8620   -4.7210   28.5980 C   0  0  1  0  0  0  0  0  0  0  0  0
    4.8560   -4.7810   29.5850 N   0  0  0  0  0  0  0  0  0  0  0  0
    4.4190   -6.0190   30.0640 C   0  0  0  0  0  0  0  0  0  0  0  0
    3.6830   -5.7580   31.2270 C   0  0  0  0  0  0  0  0  0  0  0  0
    2.9740   -4.5040   31.3380 N   0  0  0  0  0  0  0  0  0  0  0  0
    2.4670   -4.0880   32.6380 C   0  0  0  0  0  0  0  0  0  0  0  0
    1.2300   -4.9040   32.9470 C   0  0  0  0  0  0  0  0  0  0  0  0
    3.3300   -3.3000   30.5950 C   0  0  0  0  0  0  0  0  0  0  0  0
    3.7980   -3.8220   29.2760 C   0  0  0  0  0  0  0  0  0  0  0  0
    5.4920   -4.9180   27.2610 C   0  0  0  0  0  0  0  0  0  0  0  0
    7.4120   -3.1360   23.5830 C   0  0  0  0  0  0  0  0  0  0  0  0
    7.6510   -3.2930   22.2510 C   0  0  0  0  0  0  0  0  0  0  0  0
  1  2  1  0
  2  3  2  0
  2  4  1  0
  4  5  1  0
  5  6  1  0
  6  7  1  0
  7  8  1  0
  8  9  2  0
  8 10  1  0
 10 11  1  0
 11 12  1  0
 12 13  1  0
 13 14  1  1
 14 15  1  0
 15 16  1  0
 16 17  1  0
 17 18  1  0
 18 19  1  0
 17 20  1  0
 14 21  1  0
 20 21  1  0
 10 22  1  0
 13 22  1  0
  7 23  1  0
  4 24  1  0
 23 24  1  0
M  END
