piperidine-amides-11514-covalent
     RDKit          3D

 23 26  0  0  0  0  0  0  0  0999 V2000
    7.0520   -3.3490   19.3680 C   0  0  0  0  0  0  0  0  0  0  0  0
    6.3880   -4.1910   20.3700 C   0  0  0  0  0  0  0  0  0  0  0  0
    5.4150   -4.8760   19.9980 O   0  0  0  0  0  0  0  0  0  0  0  0
    6.8440   -4.2780   21.7110 N   0  0  0  0  0  0  0  0  0  0  0  0
    7.8340   -3.3590   22.2560 C   0  0  0  0  0  0  0  0  0  0  0  0
    7.1380   -2.6710   23.3790 C   0  0  0  0  0  0  0  0  0  0  0  0
    6.0580   -3.5680   23.8590 C   0  0  0  0  0  0  0  0  0  0  0  0
    5.6470   -3.2790   25.2550 C   0  0  0  0  0  0  0  0  0  0  0  0
    4.4600   -3.4970   25.6330 O   0  0  0  0  0  0  0  0  0  0  0  0
    6.5390   -2.7400   26.2070 N   0  0  0  0  0  0  0  0  0  0  0  0
    6.0760   -1.7660   27.2280 C   0  0  2  0  0  0  0  0  0  0  0  0
    6.2470   -0.4520   26.9250 C   0  0  1  0  0  0  0  0  0  0  0  0
    5.3620    0.6350   27.4630 C   0  0  0  0  0  0  0  0  0  0  0  0
    5.7730    0.6640   28.9070 C   0  0  0  0  0  0  0  0  0  0  0  0
    5.1450    1.6240   29.9250 C   0  0  0  0  0  0  0  0  0  0  0  0
    3.8950    2.8010   29.5800 Cl  0  0  0  0  0  0  0  0  0  0  0  0
    5.7420    1.4390   31.2980 C   0  0  0  0  0  0  0  0  0  0  0  0
    6.7260    0.5150   31.5670 C   0  0  0  0  0  0  0  0  0  0  0  0
    7.2470   -0.3200   30.6000 C   0  0  0  0  0  0  0  0  0  0  0  0
    6.7200   -0.2130   29.2080 C   0  0  0  0  0  0  0  0  0  0  0  0
    7.1670   -1.0340   28.0330 C   0  0  1  0  0  0  0  0  0  0  0  0
    6.5830   -4.9920   23.6170 C   0  0  0  0  0  0  0  0  0  0  0  0
    6.2800   -5.3940   22.5070 C   0  0  0  0  0  0  0  0  0  0  0  0
  1  2  1  0
  2  3  2  0
  2  4  1  0
  4  5  1  0
  5  6  1  0
  6  7  1  0
  7  8  1  0
  8  9  2  0
  8 10  1  0
 11 10  1  6
 11 12  1  0
 12 13  1  1
 13 14  1  0
 14 15  1  0
 15 16  1  0
 15 17  2  0
 17 18  1  0
 18 19  2  0
 14 20  2  0
 19 20  1  0
 11 21  1  0
 12 21  1  0
 21 20  1  1
  7 22  1  0
  4 23  1  0
 22 23  1  0
M  END
