piperidine-amides-34411-covalent
     RDKit          3D

 28 29  0  0  0  0  0  0  0  0999 V2000
    7.1190   -3.2830   19.2210 C   0  0  0  0  0  0  0  0  0  0  0  0
    6.3930   -4.0720   20.2260 C   0  0  0  0  0  0  0  0  0  0  0  0
    5.3210   -4.6410   19.9220 O   0  0  0  0  0  0  0  0  0  0  0  0
    6.9190   -4.2500   21.5090 N   0  0  0  0  0  0  0  0  0  0  0  0
    7.6740   -3.1830   22.1310 C   0  0  0  0  0  0  0  0  0  0  0  0
    6.7910   -2.6490   23.2580 C   0  0  0  0  0  0  0  0  0  0  0  0
    6.5320   -3.8120   24.1890 C   0  0  0  0  0  0  0  0  0  0  0  0
    5.7440   -3.3380   25.3420 C   0  0  0  0  0  0  0  0  0  0  0  0
    4.5000   -3.3260   25.2370 O   0  0  0  0  0  0  0  0  0  0  0  0
    6.3970   -2.8970   26.5180 N   0  0  0  0  0  0  0  0  0  0  0  0
    6.7920   -1.5240   26.5810 C   0  0  0  0  0  0  0  0  0  0  0  0
    6.9130   -1.0660   28.0280 C   0  0  0  0  0  0  0  0  0  0  0  0
    6.0680   -3.5470   27.7680 C   0  0  2  0  0  0  0  0  0  0  0  0
    6.0410   -4.9110   27.7880 C   0  0  0  0  0  0  0  0  0  0  0  0
    5.9270   -5.6910   26.6460 O   0  0  0  0  0  0  0  0  0  0  0  0
    6.1140   -5.5070   29.0030 O   0  0  0  0  0  0  0  0  0  0  0  0
    6.2950   -6.8560   28.9880 C   0  0  0  0  0  0  0  0  0  0  0  0
    5.8020   -7.2830   30.1950 C   0  0  0  0  0  0  0  0  0  0  0  0
    4.8140   -3.1950   28.2410 C   0  0  0  0  0  0  0  0  0  0  0  0
    4.0120   -4.0400   29.1940 C   0  0  0  0  0  0  0  0  0  0  0  0
    2.6220   -3.7740   29.7960 C   0  0  0  0  0  0  0  0  0  0  0  0
    1.6570   -4.7460   30.9140 Cl  0  0  0  0  0  0  0  0  0  0  0  0
    2.3050   -2.4380   29.1620 C   0  0  0  0  0  0  0  0  0  0  0  0
    3.0520   -1.6480   28.2730 C   0  0  0  0  0  0  0  0  0  0  0  0
    2.3760   -0.1140   27.7160 Cl  0  0  0  0  0  0  0  0  0  0  0  0
    4.2400   -2.0680   27.8730 C   0  0  0  0  0  0  0  0  0  0  0  0
    5.7480   -4.9240   23.5050 C   0  0  0  0  0  0  0  0  0  0  0  0
    6.5010   -5.3800   22.2810 C   0  0  0  0  0  0  0  0  0  0  0  0
  1  2  1  0
  2  3  2  0
  2  4  1  0
  4  5  1  0
  5  6  1  0
  6  7  1  0
  7  8  1  0
  8  9  2  0
  8 10  1  0
 10 11  1  0
 11 12  1  0
 10 13  1  0
 13 14  1  6
 14 15  2  0
 14 16  1  0
 16 17  1  0
 17 18  1  0
 13 19  1  0
 19 20  2  0
 20 21  1  0
 21 22  1  0
 21 23  2  0
 23 24  1  0
 24 25  1  0
 19 26  1  0
 24 26  2  0
  7 27  1  0
  4 28  1  0
 27 28  1  0
M  END
