piperidine-amides-11947-covalent
     RDKit          3D

 26 27  0  0  0  0  0  0  0  0999 V2000
    7.0710   -3.2600   19.1640 C   0  0  0  0  0  0  0  0  0  0  0  0
    6.2740   -3.9890   20.1500 C   0  0  0  0  0  0  0  0  0  0  0  0
    5.1990   -4.4810   19.8370 O   0  0  0  0  0  0  0  0  0  0  0  0
    6.7610   -4.1870   21.4710 N   0  0  0  0  0  0  0  0  0  0  0  0
    7.5430   -3.1540   22.0940 C   0  0  0  0  0  0  0  0  0  0  0  0
    6.8340   -2.6500   23.3100 C   0  0  0  0  0  0  0  0  0  0  0  0
    6.5730   -3.8580   24.1810 C   0  0  0  0  0  0  0  0  0  0  0  0
    5.9500   -3.4190   25.4510 C   0  0  0  0  0  0  0  0  0  0  0  0
    4.7280   -3.1710   25.5540 O   0  0  0  0  0  0  0  0  0  0  0  0
    6.7990   -3.2680   26.5740 N   0  0  0  0  0  0  0  0  0  0  0  0
    7.3520   -4.4520   27.2040 C   0  0  2  0  0  0  0  0  0  0  0  0
    8.3290   -5.0490   26.2150 C   0  0  0  0  0  0  0  0  0  0  0  0
    9.3420   -4.2920   25.6140 C   0  0  0  0  0  0  0  0  0  0  0  0
   10.6280   -4.3810   26.1230 C   0  0  0  0  0  0  0  0  0  0  0  0
   11.6370   -3.6520   25.5390 C   0  0  0  0  0  0  0  0  0  0  0  0
   11.3500   -2.8160   24.4190 C   0  0  0  0  0  0  0  0  0  0  0  0
   10.1510   -2.6310   23.8180 C   0  0  0  0  0  0  0  0  0  0  0  0
    9.8180   -1.8430   22.7340 C   0  0  0  0  0  0  0  0  0  0  0  0
    9.0820   -3.4740   24.5280 C   0  0  0  0  0  0  0  0  0  0  0  0
    6.4200   -5.3770   27.7220 C   0  0  0  0  0  0  0  0  0  0  0  0
    5.8840   -6.1110   26.8830 O   0  0  0  0  0  0  0  0  0  0  0  0
    6.1180   -5.4490   29.0780 O   0  0  0  0  0  0  0  0  0  0  0  0
    5.1110   -6.2680   29.6060 C   0  0  0  0  0  0  0  0  0  0  0  0
    5.3000   -7.6210   29.3490 C   0  0  0  0  0  0  0  0  0  0  0  0
    5.6660   -4.8320   23.4690 C   0  0  0  0  0  0  0  0  0  0  0  0
    6.4010   -5.3580   22.2290 C   0  0  0  0  0  0  0  0  0  0  0  0
  1  2  1  0
  2  3  2  0
  2  4  1  0
  4  5  1  0
  5  6  1  0
  6  7  1  0
  7  8  1  0
  8  9  2  0
  8 10  1  0
 10 11  1  0
 11 12  1  6
 12 13  1  0
 13 14  2  0
 14 15  1  0
 15 16  2  0
 16 17  1  0
 17 18  1  0
 13 19  1  0
 17 19  2  0
 11 20  1  0
 20 21  2  0
 20 22  1  0
 22 23  1  0
 23 24  1  0
  7 25  1  0
  4 26  1  0
 25 26  1  0
M  END
