piperidine-amides-24276-covalent
     RDKit          3D

 24 26  0  0  0  0  0  0  0  0999 V2000
    7.0460   -3.3600   19.4160 C   0  0  0  0  0  0  0  0  0  0  0  0
    6.3840   -4.2220   20.4040 C   0  0  0  0  0  0  0  0  0  0  0  0
    5.4290   -4.9390   20.0150 O   0  0  0  0  0  0  0  0  0  0  0  0
    6.8240   -4.2930   21.7470 N   0  0  0  0  0  0  0  0  0  0  0  0
    6.6770   -5.5550   22.4570 C   0  0  0  0  0  0  0  0  0  0  0  0
    6.2470   -5.2690   23.9160 C   0  0  0  0  0  0  0  0  0  0  0  0
    6.1550   -3.7690   24.0550 C   0  0  0  0  0  0  0  0  0  0  0  0
    5.5120   -3.3220   25.3360 C   0  0  0  0  0  0  0  0  0  0  0  0
    4.3540   -2.8830   25.2000 O   0  0  0  0  0  0  0  0  0  0  0  0
    6.0640   -3.3500   26.6640 N   0  0  0  0  0  0  0  0  0  0  0  0
    5.4710   -2.4150   27.5530 C   0  0  0  0  0  0  0  0  0  0  0  0
    4.6080   -3.3420   28.2920 C   0  0  0  0  0  0  0  0  0  0  0  0
    5.2820   -4.4870   28.3900 C   0  0  0  0  0  0  0  0  0  0  0  0
    5.0940   -5.6440   29.4200 C   0  0  0  0  0  0  0  0  0  0  0  0
    4.0570   -5.4580   30.3380 F   0  0  0  0  0  0  0  0  0  0  0  0
    5.9680   -6.8290   29.4060 C   0  0  0  0  0  0  0  0  0  0  0  0
    6.6750   -6.4710   28.4430 C   0  0  0  0  0  0  0  0  0  0  0  0
    5.8500   -5.3380   28.4220 C   0  0  0  0  0  0  0  0  0  0  0  0
    4.7960   -4.9110   29.1550 N   0  0  0  0  0  0  0  0  0  0  0  0
    3.5420   -5.4050   28.7900 O   0  0  0  0  0  0  0  0  0  0  0  0
    4.7990   -3.6850   29.7970 O   0  0  0  0  0  0  0  0  0  0  0  0
    6.3130   -4.6220   27.3930 C   0  0  0  0  0  0  0  0  0  0  0  0
    7.4010   -3.0640   23.7340 C   0  0  0  0  0  0  0  0  0  0  0  0
    7.6880   -3.2870   22.3140 C   0  0  0  0  0  0  0  0  0  0  0  0
  1  2  1  0
  2  3  2  0
  2  4  1  0
  4  5  1  0
  5  6  1  0
  6  7  1  0
  7  8  1  0
  8  9  2  0
  8 10  1  0
 10 11  1  0
 11 12  1  0
 12 13  1  0
 13 14  1  0
 14 15  1  0
 14 16  2  0
 16 17  1  0
 17 18  2  0
 18 19  1  0
 19 20  2  0
 19 21  1  0
 10 22  1  0
 13 22  2  0
 18 22  1  0
  7 23  1  0
  4 24  1  0
 23 24  1  0
M  CHG  2  19   1  21  -1
M  END
