piperidine-amides-27622-covalent
     RDKit          3D

 26 29  0  0  0  0  0  0  0  0999 V2000
    7.0890   -3.3410   19.2740 C   0  0  0  0  0  0  0  0  0  0  0  0
    6.3460   -4.1190   20.2730 C   0  0  0  0  0  0  0  0  0  0  0  0
    5.2640   -4.6380   19.9050 O   0  0  0  0  0  0  0  0  0  0  0  0
    6.8710   -4.3020   21.5460 N   0  0  0  0  0  0  0  0  0  0  0  0
    6.6360   -5.5270   22.2760 C   0  0  0  0  0  0  0  0  0  0  0  0
    5.9960   -5.1810   23.5950 C   0  0  0  0  0  0  0  0  0  0  0  0
    6.0360   -3.7000   23.8500 C   0  0  0  0  0  0  0  0  0  0  0  0
    5.6190   -3.3270   25.2270 C   0  0  0  0  0  0  0  0  0  0  0  0
    4.5430   -2.7040   25.3370 O   0  0  0  0  0  0  0  0  0  0  0  0
    6.3220   -3.6140   26.4190 N   0  0  0  0  0  0  0  0  0  0  0  0
    6.0090   -2.7750   27.5570 C   0  0  0  0  0  0  0  0  0  0  0  0
    6.1530   -3.5380   28.8450 C   0  0  0  0  0  0  0  0  0  0  0  0
    6.9020   -4.6610   28.9000 C   0  0  0  0  0  0  0  0  0  0  0  0
    6.8190   -5.5130   27.8720 C   0  0  1  0  0  0  0  0  0  0  0  0
    5.8220   -6.3310   28.2270 O   0  0  0  0  0  0  0  0  0  0  0  0
    5.0600   -6.6200   27.1920 C   0  0  1  0  0  0  0  0  0  0  0  0
    3.7360   -7.0220   27.2590 C   0  0  0  0  0  0  0  0  0  0  0  0
    3.1540   -7.6380   26.1240 C   0  0  0  0  0  0  0  0  0  0  0  0
    1.7250   -8.1550   25.9880 C   0  0  0  0  0  0  0  0  0  0  0  0
    0.9160   -7.9460   27.2380 C   0  0  0  0  0  0  0  0  0  0  0  0
    1.4850   -7.3080   28.4410 C   0  0  0  0  0  0  0  0  0  0  0  0
    2.9050   -6.8110   28.5340 C   0  0  0  0  0  0  0  0  0  0  0  0
    5.3180   -5.7380   26.1970 C   0  0  0  0  0  0  0  0  0  0  0  0
    6.5640   -5.0270   26.6180 C   0  0  1  0  0  0  0  0  0  0  0  0
    7.4030   -3.2160   23.5960 C   0  0  0  0  0  0  0  0  0  0  0  0
    7.6960   -3.2500   22.1090 C   0  0  0  0  0  0  0  0  0  0  0  0
  1  2  1  0
  2  3  2  0
  2  4  1  0
  4  5  1  0
  5  6  1  0
  6  7  1  0
  7  8  1  0
  8  9  2  0
  8 10  1  0
 10 11  1  0
 11 12  1  0
 12 13  1  0
 14 13  1  1
 14 15  1  0
 15 16  1  0
 16 17  1  1
 17 18  2  0
 18 19  1  0
 19 20  2  0
 20 21  1  0
 17 22  1  0
 21 22  2  0
 16 23  1  0
 10 24  1  0
 14 24  1  0
 24 23  1  1
  7 25  1  0
  4 26  1  0
 25 26  1  0
M  END
