piperidine-amides-18909-covalent
     RDKit          3D

 21 22  0  0  0  0  0  0  0  0999 V2000
    7.0290   -3.4350   19.3460 C   0  0  0  0  0  0  0  0  0  0  0  0
    6.3530   -4.1930   20.3750 C   0  0  0  0  0  0  0  0  0  0  0  0
    5.3820   -4.9230   20.0040 O   0  0  0  0  0  0  0  0  0  0  0  0
    6.7620   -4.1790   21.7270 N   0  0  0  0  0  0  0  0  0  0  0  0
    6.6860   -5.4960   22.4270 C   0  0  0  0  0  0  0  0  0  0  0  0
    5.9130   -5.1400   23.7650 C   0  0  0  0  0  0  0  0  0  0  0  0
    6.3190   -3.7320   24.1040 C   0  0  0  0  0  0  0  0  0  0  0  0
    5.5350   -3.1750   25.3840 C   0  0  0  0  0  0  0  0  0  0  0  0
    4.8170   -2.2530   25.0440 O   0  0  0  0  0  0  0  0  0  0  0  0
    5.8260   -3.8220   26.4450 N   0  0  0  0  0  0  0  0  0  0  0  0
    6.1150   -4.8040   27.3070 C   0  0  0  0  0  0  0  0  0  0  0  0
    5.4830   -5.5320   28.2210 C   0  0  1  0  0  0  0  0  0  0  0  0
    6.2940   -5.8270   29.3160 C   0  0  0  0  0  0  0  0  0  0  0  0
    7.2550   -6.7480   28.9120 O   0  0  0  0  0  0  0  0  0  0  0  0
    4.4730   -4.8140   28.7540 O   0  0  0  0  0  0  0  0  0  0  0  0
    4.5780   -3.4610   28.4360 C   0  0  0  0  0  0  0  0  0  0  0  0
    4.0540   -2.3560   29.3730 C   0  0  0  0  0  0  0  0  0  0  0  0
    3.2630   -2.7850   28.0050 C   0  0  0  0  0  0  0  0  0  0  0  0
    5.7820   -3.0090   27.6330 C   0  0  0  0  0  0  0  0  0  0  0  0
    7.6610   -3.3520   23.8000 C   0  0  0  0  0  0  0  0  0  0  0  0
    7.6620   -3.2100   22.2520 C   0  0  0  0  0  0  0  0  0  0  0  0
  1  2  1  0
  2  3  2  0
  2  4  1  0
  4  5  1  0
  5  6  1  0
  6  7  1  0
  7  8  1  0
  8  9  2  0
  8 10  1  0
 10 11  1  0
 11 12  1  0
 12 13  1  1
 13 14  1  0
 12 15  1  0
 15 16  1  0
 16 17  1  0
 16 18  1  0
 10 19  1  0
 16 19  1  0
  7 20  1  0
  4 21  1  0
 20 21  1  0
M  END
