piperidine-amides-2366-covalent
     RDKit          3D

 27 29  0  0  0  0  0  0  0  0999 V2000
    7.0760   -3.2530   19.2110 C   0  0  0  0  0  0  0  0  0  0  0  0
    6.3270   -4.0250   20.2440 C   0  0  0  0  0  0  0  0  0  0  0  0
    5.2970   -4.5910   19.8910 O   0  0  0  0  0  0  0  0  0  0  0  0
    6.8100   -4.1190   21.5480 N   0  0  0  0  0  0  0  0  0  0  0  0
    7.7070   -3.1380   22.1010 C   0  0  0  0  0  0  0  0  0  0  0  0
    7.5040   -3.0870   23.5740 C   0  0  0  0  0  0  0  0  0  0  0  0
    6.0800   -3.5450   23.8760 C   0  0  0  0  0  0  0  0  0  0  0  0
    5.7890   -3.1390   25.2590 C   0  0  0  0  0  0  0  0  0  0  0  0
    4.6250   -3.2010   25.6790 O   0  0  0  0  0  0  0  0  0  0  0  0
    6.8240   -2.6760   26.0980 N   0  0  0  0  0  0  0  0  0  0  0  0
    7.0220   -3.3120   27.3700 C   0  0  0  0  0  0  0  0  0  0  0  0
    7.2690   -2.2110   28.3840 C   0  0  0  0  0  0  0  0  0  0  0  0
    6.5190   -1.8980   29.5050 C   0  0  0  0  0  0  0  0  0  0  0  0
    6.8340   -0.8890   30.3830 C   0  0  0  0  0  0  0  0  0  0  0  0
    7.9410   -0.1150   30.1930 C   0  0  0  0  0  0  0  0  0  0  0  0
    8.3970    1.0120   31.0990 C   0  0  0  0  0  0  0  0  0  0  0  0
    9.8310    1.3390   30.8000 C   0  0  0  0  0  0  0  0  0  0  0  0
   10.3650    2.4760   31.6820 C   0  0  0  0  0  0  0  0  0  0  0  0
    9.4880    3.1520   32.7250 C   0  0  0  0  0  0  0  0  0  0  0  0
   10.1150    4.1700   33.4530 O   0  0  0  0  0  0  0  0  0  0  0  0
   11.3180    3.8120   33.9940 C   0  0  0  0  0  0  0  0  0  0  0  0
    8.0680    2.7030   32.9010 C   0  0  0  0  0  0  0  0  0  0  0  0
    7.4660    1.6320   32.1100 C   0  0  0  0  0  0  0  0  0  0  0  0
    8.7430   -0.4100   29.0150 C   0  0  0  0  0  0  0  0  0  0  0  0
    8.4790   -1.3880   28.1120 C   0  0  0  0  0  0  0  0  0  0  0  0
    5.9240   -5.0150   23.5830 C   0  0  0  0  0  0  0  0  0  0  0  0
    6.6680   -5.3830   22.2870 C   0  0  0  0  0  0  0  0  0  0  0  0
  1  2  1  0
  2  3  2  0
  2  4  1  0
  4  5  1  0
  5  6  1  0
  6  7  1  0
  7  8  1  0
  8  9  2  0
  8 10  1  0
 10 11  1  0
 11 12  1  0
 12 13  2  0
 13 14  1  0
 14 15  2  0
 15 16  1  0
 16 17  2  0
 17 18  1  0
 18 19  2  0
 19 20  1  0
 20 21  1  0
 19 22  1  0
 16 23  1  0
 22 23  2  0
 15 24  1  0
 12 25  1  0
 24 25  2  0
  7 26  1  0
  4 27  1  0
 26 27  1  0
M  END
