piperidine-amides-2491-covalent
     RDKit          3D

 26 28  0  0  0  0  0  0  0  0999 V2000
    7.0530   -3.3280   19.2650 C   0  0  0  0  0  0  0  0  0  0  0  0
    6.3750   -4.1450   20.2980 C   0  0  0  0  0  0  0  0  0  0  0  0
    5.3670   -4.7650   19.9610 O   0  0  0  0  0  0  0  0  0  0  0  0
    6.9220   -4.2110   21.5800 N   0  0  0  0  0  0  0  0  0  0  0  0
    7.4900   -3.0330   22.1670 C   0  0  0  0  0  0  0  0  0  0  0  0
    6.5400   -2.5730   23.2290 C   0  0  0  0  0  0  0  0  0  0  0  0
    6.4960   -3.6790   24.2670 C   0  0  0  0  0  0  0  0  0  0  0  0
    5.7190   -3.2430   25.4460 C   0  0  0  0  0  0  0  0  0  0  0  0
    4.4910   -3.1870   25.3650 O   0  0  0  0  0  0  0  0  0  0  0  0
    6.3580   -2.8970   26.6630 N   0  0  0  0  0  0  0  0  0  0  0  0
    6.7010   -1.5040   26.8570 C   0  0  2  0  0  0  0  0  0  0  0  0
    7.1960   -1.3830   28.2920 C   0  0  0  0  0  0  0  0  0  0  0  0
    6.4230   -1.3610   29.4080 C   0  0  0  0  0  0  0  0  0  0  0  0
    5.6950   -0.2500   29.6200 C   0  0  0  0  0  0  0  0  0  0  0  0
    5.1970    0.3030   28.4900 C   0  0  0  0  0  0  0  0  0  0  0  0
    5.9930    0.6930   27.2700 C   0  0  0  0  0  0  0  0  0  0  0  0
    5.6820   -0.4830   26.3580 C   0  0  2  0  0  0  0  0  0  0  0  0
    4.1880   -0.7140   26.3770 C   0  0  0  0  0  0  0  0  0  0  0  0
    3.7160   -1.7500   27.3230 C   0  0  0  0  0  0  0  0  0  0  0  0
    2.2510   -1.9850   27.3240 C   0  0  0  0  0  0  0  0  0  0  0  0
    1.3100   -1.2070   26.4110 C   0  0  0  0  0  0  0  0  0  0  0  0
   -0.4190   -1.4760   26.4060 Cl  0  0  0  0  0  0  0  0  0  0  0  0
    1.8980   -0.1750   25.4890 C   0  0  0  0  0  0  0  0  0  0  0  0
    3.4050    0.0270   25.5270 C   0  0  0  0  0  0  0  0  0  0  0  0
    5.8680   -4.9110   23.6510 C   0  0  0  0  0  0  0  0  0  0  0  0
    6.5770   -5.3440   22.3850 C   0  0  0  0  0  0  0  0  0  0  0  0
  1  2  1  0
  2  3  2  0
  2  4  1  0
  4  5  1  0
  5  6  1  0
  6  7  1  0
  7  8  1  0
  8  9  2  0
  8 10  1  0
 11 10  1  1
 11 12  1  0
 12 13  1  0
 13 14  1  0
 14 15  1  0
 15 16  1  0
 11 17  1  0
 16 17  1  0
 17 18  1  1
 18 19  2  0
 19 20  1  0
 20 21  2  0
 21 22  1  0
 21 23  1  0
 18 24  1  0
 23 24  2  0
  7 25  1  0
  4 26  1  0
 25 26  1  0
M  END
