piperidine-amides-13014-covalent
     RDKit          3D

 20 21  0  0  0  0  0  0  0  0999 V2000
    7.1250   -3.2740   19.2350 C   0  0  0  0  0  0  0  0  0  0  0  0
    6.3170   -3.9950   20.2430 C   0  0  0  0  0  0  0  0  0  0  0  0
    5.2480   -4.4980   19.8550 O   0  0  0  0  0  0  0  0  0  0  0  0
    6.7670   -4.1410   21.5640 N   0  0  0  0  0  0  0  0  0  0  0  0
    7.6100   -3.1380   22.1320 C   0  0  0  0  0  0  0  0  0  0  0  0
    7.4620   -2.9320   23.5760 C   0  0  0  0  0  0  0  0  0  0  0  0
    6.8570   -4.0550   24.3280 C   0  0  0  0  0  0  0  0  0  0  0  0
    6.2020   -3.5380   25.5550 C   0  0  0  0  0  0  0  0  0  0  0  0
    4.9700   -3.3130   25.5160 O   0  0  0  0  0  0  0  0  0  0  0  0
    6.9520   -3.2870   26.7280 N   0  0  0  0  0  0  0  0  0  0  0  0
    7.7080   -4.3290   27.4850 C   0  0  2  0  0  0  0  0  0  0  0  0
    8.5870   -5.1790   26.6220 C   0  0  0  0  0  0  0  0  0  0  0  0
    6.8230   -5.2020   28.2830 C   0  0  0  0  0  0  0  0  0  0  0  0
    5.9260   -6.1420   27.8860 C   0  0  0  0  0  0  0  0  0  0  0  0
    5.3070   -6.7380   28.8970 C   0  0  0  0  0  0  0  0  0  0  0  0
    4.3810   -7.6990   28.7930 C   0  0  0  0  0  0  0  0  0  0  0  0
    5.8830   -6.1020   30.0180 N   0  0  0  0  0  0  0  0  0  0  0  0
    6.7580   -5.2100   29.6010 O   0  0  0  0  0  0  0  0  0  0  0  0
    5.9520   -4.9720   23.5510 C   0  0  0  0  0  0  0  0  0  0  0  0
    6.5240   -5.3100   22.3580 C   0  0  0  0  0  0  0  0  0  0  0  0
  1  2  1  0
  2  3  2  0
  2  4  1  0
  4  5  1  0
  5  6  1  0
  6  7  1  0
  7  8  1  0
  8  9  2  0
  8 10  1  0
 10 11  1  0
 11 12  1  6
 11 13  1  0
 13 14  2  0
 14 15  1  0
 15 16  1  0
 15 17  2  0
 13 18  1  0
 17 18  1  0
  7 19  1  0
  4 20  1  0
 19 20  1  0
M  END
