piperidine-amides-6304-covalent
     RDKit          3D

 25 26  0  0  0  0  0  0  0  0999 V2000
    7.0350   -3.3600   19.3550 C   0  0  0  0  0  0  0  0  0  0  0  0
    6.3440   -4.1840   20.3570 C   0  0  0  0  0  0  0  0  0  0  0  0
    5.3860   -4.9040   19.9970 O   0  0  0  0  0  0  0  0  0  0  0  0
    6.7700   -4.2070   21.6950 N   0  0  0  0  0  0  0  0  0  0  0  0
    6.6720   -5.4580   22.4210 C   0  0  0  0  0  0  0  0  0  0  0  0
    6.0220   -5.1380   23.7700 C   0  0  0  0  0  0  0  0  0  0  0  0
    6.1020   -3.6400   23.9260 C   0  0  0  0  0  0  0  0  0  0  0  0
    5.6440   -3.2060   25.2650 C   0  0  0  0  0  0  0  0  0  0  0  0
    4.4140   -3.1560   25.4680 O   0  0  0  0  0  0  0  0  0  0  0  0
    6.5680   -2.8690   26.2850 N   0  0  0  0  0  0  0  0  0  0  0  0
    6.4420   -1.6280   27.0020 C   0  0  0  0  0  0  0  0  0  0  0  0
    7.0140   -1.5540   28.4000 C   0  0  0  0  0  0  0  0  0  0  0  0
    6.9730   -0.4540   29.1900 C   0  0  0  0  0  0  0  0  0  0  0  0
    6.3820    0.6990   28.7480 C   0  0  0  0  0  0  0  0  0  0  0  0
    6.3300    1.8390   29.5570 C   0  0  0  0  0  0  0  0  0  0  0  0
    7.4370    2.4870   29.9930 O   0  0  0  0  0  0  0  0  0  0  0  0
    5.0490    2.1590   29.8080 N   0  0  0  0  0  0  0  0  0  0  0  0
    4.5630    3.7100   29.4260 S   0  0  0  0  0  0  0  0  0  0  0  0
    3.6880    4.3780   30.8140 C   0  0  0  0  0  0  0  0  0  0  0  0
    3.5870    3.7160   27.9380 C   0  0  0  0  0  0  0  0  0  0  0  0
    5.7860    4.5290   29.1200 O   0  0  0  0  0  0  0  0  0  0  0  0
    5.8190    0.7760   27.5010 C   0  0  0  0  0  0  0  0  0  0  0  0
    5.7860   -0.3570   26.5040 C   0  0  0  0  0  0  0  0  0  0  0  0
    7.5000   -3.1780   23.6170 C   0  0  0  0  0  0  0  0  0  0  0  0
    7.6340   -3.1550   22.2200 C   0  0  0  0  0  0  0  0  0  0  0  0
  1  2  1  0
  2  3  2  0
  2  4  1  0
  4  5  1  0
  5  6  1  0
  6  7  1  0
  7  8  1  0
  8  9  2  0
  8 10  1  0
 10 11  1  0
 11 12  2  0
 12 13  1  0
 13 14  2  0
 14 15  1  0
 15 16  2  0
 15 17  1  0
 17 18  2  0
 18 19  1  0
 18 20  1  0
 18 21  2  0
 14 22  1  0
 11 23  1  0
 22 23  2  0
  7 24  1  0
  4 25  1  0
 24 25  1  0
M  END
