piperidine-amides-33186-covalent
     RDKit          3D

 28 30  0  0  0  0  0  0  0  0999 V2000
    7.0770   -3.3940   19.3600 C   0  0  0  0  0  0  0  0  0  0  0  0
    6.4080   -4.2220   20.3730 C   0  0  0  0  0  0  0  0  0  0  0  0
    5.3870   -4.8460   19.9890 O   0  0  0  0  0  0  0  0  0  0  0  0
    6.9320   -4.3560   21.6920 N   0  0  0  0  0  0  0  0  0  0  0  0
    6.6160   -5.5310   22.4430 C   0  0  0  0  0  0  0  0  0  0  0  0
    6.2170   -5.2580   23.8230 C   0  0  0  0  0  0  0  0  0  0  0  0
    6.1530   -3.8170   24.1200 C   0  0  0  0  0  0  0  0  0  0  0  0
    5.5220   -3.4670   25.4450 C   0  0  0  0  0  0  0  0  0  0  0  0
    4.4290   -2.8750   25.3980 O   0  0  0  0  0  0  0  0  0  0  0  0
    6.0380   -3.7380   26.7370 N   0  0  0  0  0  0  0  0  0  0  0  0
    5.8850   -2.8760   27.8440 C   0  0  0  0  0  0  0  0  0  0  0  0
    5.4420   -3.4380   29.1080 C   0  0  0  0  0  0  0  0  0  0  0  0
    4.9180   -4.6570   29.2100 N   0  0  0  0  0  0  0  0  0  0  0  0
    3.9410   -5.1220   30.1670 C   0  0  0  0  0  0  0  0  0  0  0  0
    4.2740   -6.4050   30.5470 C   0  0  0  0  0  0  0  0  0  0  0  0
    5.2270   -6.6250   31.5210 O   0  0  0  0  0  0  0  0  0  0  0  0
    3.5350   -7.2560   29.8180 N   0  0  0  0  0  0  0  0  0  0  0  0
    2.5880   -8.1310   30.4940 C   0  0  0  0  0  0  0  0  0  0  0  0
    2.9410   -8.2280   31.9560 C   0  0  0  0  0  0  0  0  0  0  0  0
    1.9250   -9.1730   32.6540 C   0  0  0  0  0  0  0  0  0  0  0  0
    0.7290   -9.9530   32.1410 C   0  0  0  0  0  0  0  0  0  0  0  0
   -0.2640  -10.9640   33.1650 Cl  0  0  0  0  0  0  0  0  0  0  0  0
    0.5110   -9.7460   30.6660 C   0  0  0  0  0  0  0  0  0  0  0  0
    1.4300   -8.8480   29.8640 C   0  0  0  0  0  0  0  0  0  0  0  0
    5.2370   -5.4670   28.2210 C   0  0  0  0  0  0  0  0  0  0  0  0
    6.1770   -5.0600   27.3310 C   0  0  0  0  0  0  0  0  0  0  0  0
    7.3960   -3.0930   23.7500 C   0  0  0  0  0  0  0  0  0  0  0  0
    7.6930   -3.2660   22.2780 C   0  0  0  0  0  0  0  0  0  0  0  0
  1  2  1  0
  2  3  2  0
  2  4  1  0
  4  5  1  0
  5  6  1  0
  6  7  1  0
  7  8  1  0
  8  9  2  0
  8 10  1  0
 10 11  1  0
 11 12  1  0
 12 13  1  0
 13 14  1  0
 14 15  1  0
 15 16  2  0
 15 17  1  0
 17 18  1  0
 18 19  2  0
 19 20  1  0
 20 21  2  0
 21 22  1  0
 21 23  1  0
 18 24  1  0
 23 24  2  0
 13 25  1  0
 10 26  1  0
 25 26  1  0
  7 27  1  0
  4 28  1  0
 27 28  1  0
M  END
