piperidine-amides-16153-covalent
     RDKit          3D

 19 20  0  0  0  0  0  0  0  0999 V2000
    7.1000   -3.3360   19.2840 C   0  0  0  0  0  0  0  0  0  0  0  0
    6.3470   -4.1320   20.2820 C   0  0  0  0  0  0  0  0  0  0  0  0
    5.2900   -4.6300   19.9150 O   0  0  0  0  0  0  0  0  0  0  0  0
    6.8790   -4.3410   21.5600 N   0  0  0  0  0  0  0  0  0  0  0  0
    6.5120   -5.4830   22.3470 C   0  0  0  0  0  0  0  0  0  0  0  0
    5.7210   -5.0060   23.5310 C   0  0  0  0  0  0  0  0  0  0  0  0
    6.5530   -3.9880   24.3130 C   0  0  0  0  0  0  0  0  0  0  0  0
    5.7460   -3.5870   25.5000 C   0  0  0  0  0  0  0  0  0  0  0  0
    4.5920   -3.1820   25.3010 O   0  0  0  0  0  0  0  0  0  0  0  0
    6.2240   -3.6340   26.8400 N   0  0  0  0  0  0  0  0  0  0  0  0
    5.6440   -2.7080   27.8010 C   0  0  0  0  0  0  0  0  0  0  0  0
    4.8330   -3.5900   28.6860 C   0  0  0  0  0  0  0  0  0  0  0  0
    5.2220   -4.8530   28.6270 C   0  0  1  0  0  0  0  0  0  0  0  0
    4.4040   -5.7000   27.9510 C   0  0  0  0  0  0  0  0  0  0  0  0
    3.7230   -6.5540   28.7710 C   0  0  0  0  0  0  0  0  0  0  0  0
    4.0060   -7.8690   28.5940 O   0  0  0  0  0  0  0  0  0  0  0  0
    6.4480   -4.6850   27.8650 C   0  0  0  0  0  0  0  0  0  0  0  0
    6.9900   -2.8360   23.4720 C   0  0  0  0  0  0  0  0  0  0  0  0
    7.6430   -3.2880   22.2010 C   0  0  0  0  0  0  0  0  0  0  0  0
  1  2  1  0
  2  3  2  0
  2  4  1  0
  4  5  1  0
  5  6  1  0
  6  7  1  0
  7  8  1  0
  8  9  2  0
  8 10  1  0
 10 11  1  0
 11 12  1  0
 12 13  1  0
 13 14  1  6
 14 15  1  0
 15 16  1  0
 10 17  1  0
 13 17  1  0
  7 18  1  0
  4 19  1  0
 18 19  1  0
M  END
