piperidine-amides-35241-covalent
     RDKit          3D

 33 37  0  0  0  0  0  0  0  0999 V2000
    7.0890   -3.3200   19.2690 C   0  0  0  0  0  0  0  0  0  0  0  0
    6.4180   -4.1850   20.2690 C   0  0  0  0  0  0  0  0  0  0  0  0
    5.3640   -4.7280   19.9430 O   0  0  0  0  0  0  0  0  0  0  0  0
    7.0170   -4.3980   21.5050 N   0  0  0  0  0  0  0  0  0  0  0  0
    6.6460   -5.5190   22.3170 C   0  0  0  0  0  0  0  0  0  0  0  0
    5.8480   -5.0070   23.4780 C   0  0  0  0  0  0  0  0  0  0  0  0
    6.6510   -3.9280   24.2040 C   0  0  0  0  0  0  0  0  0  0  0  0
    5.8420   -3.4620   25.3410 C   0  0  0  0  0  0  0  0  0  0  0  0
    4.8500   -2.7560   25.1180 O   0  0  0  0  0  0  0  0  0  0  0  0
    6.1540   -3.8040   26.6660 N   0  0  0  0  0  0  0  0  0  0  0  0
    5.9210   -5.2070   27.0070 C   0  0  0  0  0  0  0  0  0  0  0  0
    6.0660   -5.3710   28.4850 C   0  0  0  0  0  0  0  0  0  0  0  0
    5.3390   -4.4740   29.1560 C   0  0  0  0  0  0  0  0  0  0  0  0
    4.1710   -4.7540   29.8210 C   0  0  0  0  0  0  0  0  0  0  0  0
    3.4220   -3.7880   30.4470 C   0  0  0  0  0  0  0  0  0  0  0  0
    3.4070   -3.2860   31.8820 C   0  0  0  0  0  0  0  0  0  0  0  0
    2.3960   -2.1900   32.0950 C   0  0  0  0  0  0  0  0  0  0  0  0
    1.5260   -1.6970   30.9600 C   0  0  0  0  0  0  0  0  0  0  0  0
    0.3660   -0.4220   31.2560 Cl  0  0  0  0  0  0  0  0  0  0  0  0
    1.6920   -2.3270   29.6200 C   0  0  0  0  0  0  0  0  0  0  0  0
    2.6210   -3.4080   29.2140 C   0  0  0  0  0  0  0  0  0  0  0  0
    2.7330   -4.0200   27.8070 C   0  0  0  0  0  0  0  0  0  0  0  0
    2.8300   -5.4950   27.5910 C   0  0  0  0  0  0  0  0  0  0  0  0
    2.8510   -6.3470   28.8140 C   0  0  0  0  0  0  0  0  0  0  0  0
    2.1940   -7.5550   28.9150 C   0  0  0  0  0  0  0  0  0  0  0  0
    2.2350   -8.3840   30.1700 C   0  0  0  0  0  0  0  0  0  0  0  0
    3.0380   -7.8620   31.3540 C   0  0  0  0  0  0  0  0  0  0  0  0
    3.6490   -6.6860   31.1880 N   0  0  0  0  0  0  0  0  0  0  0  0
    3.5400   -5.9610   29.9320 C   0  0  0  0  0  0  0  0  0  0  0  0
    5.8290   -3.2830   29.0460 C   0  0  0  0  0  0  0  0  0  0  0  0
    6.0040   -2.7110   27.6400 C   0  0  0  0  0  0  0  0  0  0  0  0
    6.9170   -2.7870   23.2750 C   0  0  0  0  0  0  0  0  0  0  0  0
    7.7460   -3.3020   22.1270 C   0  0  0  0  0  0  0  0  0  0  0  0
  1  2  1  0
  2  3  2  0
  2  4  1  0
  4  5  1  0
  5  6  1  0
  6  7  1  0
  7  8  1  0
  8  9  2  0
  8 10  1  0
 10 11  1  0
 11 12  1  0
 12 13  1  0
 13 14  2  3
 14 15  1  0
 15 16  2  0
 16 17  1  0
 17 18  2  0
 18 19  1  0
 18 20  1  0
 15 21  1  0
 20 21  2  0
 21 22  1  0
 22 23  2  0
 23 24  1  0
 24 25  1  0
 25 26  2  0
 26 27  1  0
 27 28  2  0
 14 29  1  0
 24 29  2  0
 28 29  1  0
 13 30  1  0
 10 31  1  0
 30 31  1  0
  7 32  1  0
  4 33  1  0
 32 33  1  0
M  END
