piperidine-amides-31220-covalent
     RDKit          3D

 28 31  0  0  0  0  0  0  0  0999 V2000
    7.1070   -3.3540   19.3360 C   0  0  0  0  0  0  0  0  0  0  0  0
    6.3920   -4.1600   20.3220 C   0  0  0  0  0  0  0  0  0  0  0  0
    5.3660   -4.7710   19.9680 O   0  0  0  0  0  0  0  0  0  0  0  0
    6.8740   -4.3080   21.6350 N   0  0  0  0  0  0  0  0  0  0  0  0
    6.5290   -5.4570   22.4340 C   0  0  0  0  0  0  0  0  0  0  0  0
    5.4980   -4.9400   23.4030 C   0  0  0  0  0  0  0  0  0  0  0  0
    5.8860   -3.5830   23.9380 C   0  0  0  0  0  0  0  0  0  0  0  0
    5.3250   -3.2740   25.2960 C   0  0  0  0  0  0  0  0  0  0  0  0
    4.1220   -2.8970   25.3540 O   0  0  0  0  0  0  0  0  0  0  0  0
    5.9700   -3.3510   26.5600 N   0  0  0  0  0  0  0  0  0  0  0  0
    5.1420   -3.0950   27.7740 C   0  0  0  0  0  0  0  0  0  0  0  0
    4.9490   -4.3810   28.4920 C   0  0  0  0  0  0  0  0  0  0  0  0
    3.6030   -4.8470   28.8690 C   0  0  0  0  0  0  0  0  0  0  0  0
    3.4730   -6.1640   29.5900 C   0  0  0  0  0  0  0  0  0  0  0  0
    4.7160   -6.9810   29.9120 C   0  0  0  0  0  0  0  0  0  0  0  0
    5.9700   -6.3320   29.4450 C   0  0  0  0  0  0  0  0  0  0  0  0
    6.0300   -5.1300   28.7940 C   0  0  0  0  0  0  0  0  0  0  0  0
    7.1260   -4.4520   28.3270 C   0  0  0  0  0  0  0  0  0  0  0  0
    7.1160   -4.0780   26.8620 C   0  0  1  0  0  0  0  0  0  0  0  0
    7.3920   -5.2880   26.0230 C   0  0  0  0  0  0  0  0  0  0  0  0
    6.6610   -5.5580   25.0340 O   0  0  0  0  0  0  0  0  0  0  0  0
    8.4890   -6.0210   26.4500 N   0  0  0  0  0  0  0  0  0  0  0  0
    8.6730   -5.7890   27.8370 C   0  0  0  0  0  0  0  0  0  0  0  0
    9.7130   -5.2260   28.1010 C   0  0  0  0  0  0  0  0  0  0  0  0
   10.1340   -4.7810   26.7800 C   0  0  0  0  0  0  0  0  0  0  0  0
    9.6280   -5.5200   25.8330 C   0  0  0  0  0  0  0  0  0  0  0  0
    7.3430   -3.2710   23.7530 C   0  0  0  0  0  0  0  0  0  0  0  0
    7.6730   -3.2600   22.2600 C   0  0  0  0  0  0  0  0  0  0  0  0
  1  2  1  0
  2  3  2  0
  2  4  1  0
  4  5  1  0
  5  6  1  0
  6  7  1  0
  7  8  1  0
  8  9  2  0
  8 10  1  0
 10 11  1  0
 11 12  1  0
 12 13  2  0
 13 14  1  0
 14 15  2  0
 15 16  1  0
 12 17  1  0
 16 17  2  0
 17 18  1  0
 10 19  1  0
 18 19  1  0
 19 20  1  6
 20 21  2  0
 20 22  1  0
 22 23  1  0
 23 24  1  0
 24 25  1  0
 22 26  1  0
 25 26  1  0
  7 27  1  0
  4 28  1  0
 27 28  1  0
M  END
