piperidine-amides-9060-covalent
     RDKit          3D

 21 23  0  0  0  0  0  0  0  0999 V2000
    7.0820   -3.3200   19.3030 C   0  0  0  0  0  0  0  0  0  0  0  0
    6.3700   -4.1350   20.2850 C   0  0  0  0  0  0  0  0  0  0  0  0
    5.3280   -4.7220   19.9440 O   0  0  0  0  0  0  0  0  0  0  0  0
    6.8670   -4.3210   21.5810 N   0  0  0  0  0  0  0  0  0  0  0  0
    6.6090   -5.5120   22.3450 C   0  0  0  0  0  0  0  0  0  0  0  0
    5.8820   -5.0410   23.5740 C   0  0  0  0  0  0  0  0  0  0  0  0
    6.5980   -3.9030   24.2540 C   0  0  0  0  0  0  0  0  0  0  0  0
    5.8650   -3.3760   25.4290 C   0  0  0  0  0  0  0  0  0  0  0  0
    4.6010   -3.4720   25.4780 O   0  0  0  0  0  0  0  0  0  0  0  0
    6.4950   -2.7250   26.5230 N   0  0  0  0  0  0  0  0  0  0  0  0
    6.5660   -1.2510   26.4770 C   0  0  0  0  0  0  0  0  0  0  0  0
    6.3290    0.1440   27.0140 C   0  0  0  0  0  0  0  0  0  0  0  0
    5.7340    0.2570   28.1860 N   0  0  0  0  0  0  0  0  0  0  0  0
    5.4870   -0.8930   28.6130 N   0  0  0  0  0  0  0  0  0  0  0  0
    4.8220   -1.2920   29.8660 C   0  0  0  0  0  0  0  0  0  0  0  0
    4.6330   -2.7400   30.1290 C   0  0  0  0  0  0  0  0  0  0  0  0
    5.1610   -3.6730   29.0890 C   0  0  0  0  0  0  0  0  0  0  0  0
    5.7470   -3.1450   28.0070 N   0  0  0  0  0  0  0  0  0  0  0  0
    5.9160   -1.8160   27.7380 C   0  0  0  0  0  0  0  0  0  0  0  0
    6.8490   -2.8080   23.2510 C   0  0  0  0  0  0  0  0  0  0  0  0
    7.6320   -3.2520   22.1910 C   0  0  0  0  0  0  0  0  0  0  0  0
  1  2  1  0
  2  3  2  0
  2  4  1  0
  4  5  1  0
  5  6  1  0
  6  7  1  0
  7  8  1  0
  8  9  2  0
  8 10  1  0
 10 11  1  0
 11 12  1  0
 12 13  2  0
 13 14  1  0
 14 15  1  0
 15 16  2  0
 16 17  1  0
 17 18  2  0
 11 19  2  0
 14 19  1  0
 18 19  1  0
  7 20  1  0
  4 21  1  0
 20 21  1  0
M  END
