piperidine-amides-31549-covalent
     RDKit          3D

 27 29  0  0  0  0  0  0  0  0999 V2000
    7.0510   -3.3290   19.2420 C   0  0  0  0  0  0  0  0  0  0  0  0
    6.2930   -3.9970   20.2780 C   0  0  0  0  0  0  0  0  0  0  0  0
    5.2570   -4.6280   19.9140 O   0  0  0  0  0  0  0  0  0  0  0  0
    6.6640   -4.0270   21.6400 N   0  0  0  0  0  0  0  0  0  0  0  0
    6.5810   -5.3640   22.2880 C   0  0  0  0  0  0  0  0  0  0  0  0
    5.9330   -5.0450   23.6990 C   0  0  0  0  0  0  0  0  0  0  0  0
    5.8450   -3.5420   23.8220 C   0  0  0  0  0  0  0  0  0  0  0  0
    4.9400   -3.1070   25.0780 C   0  0  0  0  0  0  0  0  0  0  0  0
    3.8470   -3.6360   24.9860 O   0  0  0  0  0  0  0  0  0  0  0  0
    5.5460   -2.3260   25.8800 N   0  0  0  0  0  0  0  0  0  0  0  0
    6.1740   -1.2090   26.3600 C   0  0  0  0  0  0  0  0  0  0  0  0
    5.6060   -3.0760   27.0590 C   0  0  0  0  0  0  0  0  0  0  0  0
    6.8360   -3.6370   27.1630 C   0  0  0  0  0  0  0  0  0  0  0  0
    7.7500   -3.0300   26.1540 C   0  0  0  0  0  0  0  0  0  0  0  0
    9.1590   -3.5840   26.1790 C   0  0  0  0  0  0  0  0  0  0  0  0
    9.2720   -4.5460   27.1520 C   0  0  0  0  0  0  0  0  0  0  0  0
   10.3840   -4.9300   27.1050 O   0  0  0  0  0  0  0  0  0  0  0  0
   10.8170   -4.7440   25.8610 C   0  0  0  0  0  0  0  0  0  0  0  0
   11.8590   -3.6980   25.5110 C   0  0  0  0  0  0  0  0  0  0  0  0
   11.9160   -2.4200   24.6070 C   0  0  0  0  0  0  0  0  0  0  0  0
   13.1520   -1.8880   24.6670 C   0  0  0  0  0  0  0  0  0  0  0  0
   13.9970   -2.5670   25.4660 C   0  0  0  0  0  0  0  0  0  0  0  0
   13.3930   -3.9120   26.2300 S   0  0  0  0  0  0  0  0  0  0  0  0
    8.3750   -5.1130   28.1040 C   0  0  0  0  0  0  0  0  0  0  0  0
    7.1480   -4.6260   28.0830 C   0  0  0  0  0  0  0  0  0  0  0  0
    7.0860   -2.7580   23.5720 C   0  0  0  0  0  0  0  0  0  0  0  0
    7.5400   -3.0060   22.1700 C   0  0  0  0  0  0  0  0  0  0  0  0
  1  2  1  0
  2  3  2  0
  2  4  1  0
  4  5  1  0
  5  6  1  0
  6  7  1  0
  7  8  1  0
  8  9  2  0
  8 10  1  0
 10 11  1  0
 10 12  1  0
 12 13  1  0
 13 14  2  0
 14 15  1  0
 15 16  2  0
 16 17  1  0
 17 18  1  0
 18 19  1  0
 19 20  2  0
 20 21  1  0
 21 22  2  0
 19 23  1  0
 22 23  1  0
 16 24  1  0
 13 25  1  0
 24 25  2  0
  7 26  1  0
  4 27  1  0
 26 27  1  0
M  END
