piperidine-amides-35335-covalent
     RDKit          3D

 30 33  0  0  0  0  0  0  0  0999 V2000
    7.0300   -3.3580   19.3840 C   0  0  0  0  0  0  0  0  0  0  0  0
    6.3860   -4.2610   20.3810 C   0  0  0  0  0  0  0  0  0  0  0  0
    5.4030   -4.8910   19.9890 O   0  0  0  0  0  0  0  0  0  0  0  0
    6.8940   -4.4130   21.6810 N   0  0  0  0  0  0  0  0  0  0  0  0
    6.5500   -5.5510   22.4930 C   0  0  0  0  0  0  0  0  0  0  0  0
    6.6650   -5.1610   23.9430 C   0  0  0  0  0  0  0  0  0  0  0  0
    6.2300   -3.7050   24.1400 C   0  0  0  0  0  0  0  0  0  0  0  0
    6.3540   -3.2230   25.5430 C   0  0  0  0  0  0  0  0  0  0  0  0
    7.0200   -2.2270   25.7480 O   0  0  0  0  0  0  0  0  0  0  0  0
    5.6730   -3.7840   26.6360 N   0  0  0  0  0  0  0  0  0  0  0  0
    4.3130   -3.3240   26.5860 C   0  0  0  0  0  0  0  0  0  0  0  0
    3.4990   -3.9000   27.7050 C   0  0  0  0  0  0  0  0  0  0  0  0
    2.7780   -5.0460   27.4300 O   0  0  0  0  0  0  0  0  0  0  0  0
    3.5550   -3.1700   28.9640 N   0  0  0  0  0  0  0  0  0  0  0  0
    4.2760   -4.2260   29.5710 C   0  0  0  0  0  0  0  0  0  0  0  0
    3.4850   -4.7180   30.4900 C   0  0  0  0  0  0  0  0  0  0  0  0
    3.9290   -5.7130   31.1610 C   0  0  0  0  0  0  0  0  0  0  0  0
    5.2430   -6.3480   30.9770 C   0  0  0  0  0  0  0  0  0  0  0  0
    5.6940   -7.7920   32.0960 Br  0  0  0  0  0  0  0  0  0  0  0  0
    6.0810   -5.6760   29.8470 C   0  0  0  0  0  0  0  0  0  0  0  0
    5.6090   -4.4520   29.0100 C   0  0  0  0  0  0  0  0  0  0  0  0
    6.3490   -3.7440   27.9480 C   0  0  2  0  0  0  0  0  0  0  0  0
    6.3780   -2.3180   28.4520 C   0  0  0  0  0  0  0  0  0  0  0  0
    7.4750   -1.6130   29.2330 C   0  0  0  0  0  0  0  0  0  0  0  0
    7.2850   -0.2010   29.6630 C   0  0  0  0  0  0  0  0  0  0  0  0
    6.0080    0.5090   29.3040 C   0  0  0  0  0  0  0  0  0  0  0  0
    5.0630   -0.1840   28.5890 C   0  0  0  0  0  0  0  0  0  0  0  0
    5.2320   -1.6150   28.1500 C   0  0  0  0  0  0  0  0  0  0  0  0
    7.0240   -2.6740   23.3110 C   0  0  0  0  0  0  0  0  0  0  0  0
    7.7870   -3.4170   22.2370 C   0  0  0  0  0  0  0  0  0  0  0  0
  1  2  1  0
  2  3  2  0
  2  4  1  0
  4  5  1  0
  5  6  1  0
  6  7  1  0
  7  8  1  0
  8  9  2  0
  8 10  1  0
 10 11  1  0
 11 12  1  0
 12 13  2  0
 12 14  1  0
 14 15  1  0
 15 16  1  0
 16 17  2  0
 17 18  1  0
 18 19  1  0
 18 20  2  0
 15 21  2  0
 20 21  1  0
 10 22  1  0
 21 22  1  0
 22 23  1  1
 23 24  2  0
 24 25  1  0
 25 26  2  0
 26 27  1  0
 23 28  1  0
 27 28  2  0
  7 29  1  0
  4 30  1  0
 29 30  1  0
M  END
