piperidine-amides-30906-covalent
     RDKit          3D

 28 31  0  0  0  0  0  0  0  0999 V2000
    7.0910   -3.3380   19.3080 C   0  0  0  0  0  0  0  0  0  0  0  0
    6.3990   -4.1670   20.2950 C   0  0  0  0  0  0  0  0  0  0  0  0
    5.3640   -4.7650   19.9630 O   0  0  0  0  0  0  0  0  0  0  0  0
    6.9140   -4.3480   21.5860 N   0  0  0  0  0  0  0  0  0  0  0  0
    6.6460   -5.5410   22.3480 C   0  0  0  0  0  0  0  0  0  0  0  0
    5.7640   -5.0920   23.4790 C   0  0  0  0  0  0  0  0  0  0  0  0
    6.3300   -3.9170   24.2250 C   0  0  0  0  0  0  0  0  0  0  0  0
    5.2860   -3.2440   25.0210 C   0  0  0  0  0  0  0  0  0  0  0  0
    4.3580   -2.6210   24.4480 O   0  0  0  0  0  0  0  0  0  0  0  0
    5.2340   -3.2470   26.4200 N   0  0  0  0  0  0  0  0  0  0  0  0
    4.0430   -3.7300   27.1190 C   0  0  0  0  0  0  0  0  0  0  0  0
    4.4920   -4.6300   28.1810 C   0  0  0  0  0  0  0  0  0  0  0  0
    5.5780   -4.0830   28.9450 C   0  0  0  0  0  0  0  0  0  0  0  0
    5.1830   -2.7140   29.4790 C   0  0  0  0  0  0  0  0  0  0  0  0
    3.7290   -2.4020   29.7680 C   0  0  0  0  0  0  0  0  0  0  0  0
    3.6770   -1.0200   30.2770 N   0  0  0  0  0  0  0  0  0  0  0  0
    5.0740   -0.6050   30.2610 C   0  0  0  0  0  0  0  0  0  0  0  0
    5.4340    0.6860   30.6940 C   0  0  0  0  0  0  0  0  0  0  0  0
    4.5970    1.6980   31.1700 C   0  0  0  0  0  0  0  0  0  0  0  0
    3.6410    1.3200   32.2780 C   0  0  0  0  0  0  0  0  0  0  0  0
    6.9700    0.9250   30.6010 C   0  0  0  0  0  0  0  0  0  0  0  0
    7.5750   -0.2930   30.0750 C   0  0  0  0  0  0  0  0  0  0  0  0
    7.4130   -1.3670   29.6930 C   0  0  0  0  0  0  0  0  0  0  0  0
    5.9520   -1.6330   29.7750 C   0  0  0  0  0  0  0  0  0  0  0  0
    6.7030   -4.1760   28.2410 C   0  0  0  0  0  0  0  0  0  0  0  0
    6.4000   -3.1510   27.1450 C   0  0  0  0  0  0  0  0  0  0  0  0
    6.9660   -2.8430   23.4030 C   0  0  0  0  0  0  0  0  0  0  0  0
    7.7590   -3.3890   22.2540 C   0  0  0  0  0  0  0  0  0  0  0  0
  1  2  1  0
  2  3  2  0
  2  4  1  0
  4  5  1  0
  5  6  1  0
  6  7  1  0
  7  8  1  0
  8  9  2  0
  8 10  1  0
 10 11  1  0
 11 12  1  0
 12 13  1  0
 13 14  1  0
 14 15  2  0
 15 16  1  0
 16 17  1  0
 17 18  1  0
 18 19  1  0
 19 20  1  0
 18 21  2  0
 21 22  1  0
 22 23  2  0
 14 24  1  0
 17 24  2  0
 23 24  1  0
 13 25  1  0
 10 26  1  0
 25 26  1  0
  7 27  1  0
  4 28  1  0
 27 28  1  0
M  END
