piperidine-amides-31207-covalent
     RDKit          3D

 28 31  0  0  0  0  0  0  0  0999 V2000
    7.0730   -3.3480   19.3450 C   0  0  0  0  0  0  0  0  0  0  0  0
    6.4060   -4.1940   20.3360 C   0  0  0  0  0  0  0  0  0  0  0  0
    5.3990   -4.8380   19.9840 O   0  0  0  0  0  0  0  0  0  0  0  0
    6.8980   -4.3430   21.6490 N   0  0  0  0  0  0  0  0  0  0  0  0
    6.5900   -5.4890   22.4580 C   0  0  0  0  0  0  0  0  0  0  0  0
    5.6870   -4.9800   23.5610 C   0  0  0  0  0  0  0  0  0  0  0  0
    6.2180   -3.7530   24.2670 C   0  0  0  0  0  0  0  0  0  0  0  0
    5.2290   -3.1990   25.2560 C   0  0  0  0  0  0  0  0  0  0  0  0
    4.4890   -2.2270   24.9630 O   0  0  0  0  0  0  0  0  0  0  0  0
    5.0860   -3.7550   26.5480 N   0  0  0  0  0  0  0  0  0  0  0  0
    4.7510   -2.9320   27.7090 C   0  0  0  0  0  0  0  0  0  0  0  0
    5.6060   -3.4040   28.8350 C   0  0  0  0  0  0  0  0  0  0  0  0
    5.7750   -4.8700   29.0260 C   0  0  0  0  0  0  0  0  0  0  0  0
    4.5690   -5.5370   29.6470 C   0  0  0  0  0  0  0  0  0  0  0  0
    3.5800   -4.6520   30.0040 O   0  0  0  0  0  0  0  0  0  0  0  0
    4.4070   -6.9400   29.8680 N   0  0  0  0  0  0  0  0  0  0  0  0
    3.0610   -7.2600   29.2940 C   0  0  0  0  0  0  0  0  0  0  0  0
    2.2500   -7.9040   30.3910 C   0  0  0  0  0  0  0  0  0  0  0  0
    3.1210   -7.9750   31.4190 C   0  0  0  0  0  0  0  0  0  0  0  0
    2.9420   -8.5320   32.7420 C   0  0  0  0  0  0  0  0  0  0  0  0
    4.0530   -8.5400   33.8260 C   0  0  0  0  0  0  0  0  0  0  0  0
    5.3600   -7.9090   33.3870 C   0  0  0  0  0  0  0  0  0  0  0  0
    5.1120   -7.4850   32.0110 C   0  0  0  0  0  0  0  0  0  0  0  0
    4.3310   -7.4410   31.1470 C   0  0  0  0  0  0  0  0  0  0  0  0
    5.9910   -5.4800   27.7200 C   0  0  0  0  0  0  0  0  0  0  0  0
    6.1390   -4.5480   26.7500 C   0  0  0  0  0  0  0  0  0  0  0  0
    6.7200   -2.6900   23.3290 C   0  0  0  0  0  0  0  0  0  0  0  0
    7.6630   -3.2920   22.2950 C   0  0  0  0  0  0  0  0  0  0  0  0
  1  2  1  0
  2  3  2  0
  2  4  1  0
  4  5  1  0
  5  6  1  0
  6  7  1  0
  7  8  1  0
  8  9  2  0
  8 10  1  0
 10 11  1  0
 11 12  1  0
 12 13  1  0
 13 14  1  0
 14 15  2  0
 14 16  1  0
 16 17  1  0
 17 18  1  0
 18 19  1  0
 19 20  1  0
 20 21  2  0
 21 22  1  0
 22 23  2  0
 16 24  1  0
 19 24  2  0
 23 24  1  0
 13 25  1  0
 10 26  1  0
 25 26  1  0
  7 27  1  0
  4 28  1  0
 27 28  1  0
M  END
