piperidine-amides-28702-covalent
     RDKit          3D

 26 28  0  0  0  0  0  0  0  0999 V2000
    7.0450   -3.4030   19.4410 C   0  0  0  0  0  0  0  0  0  0  0  0
    6.4060   -4.2970   20.4040 C   0  0  0  0  0  0  0  0  0  0  0  0
    5.4080   -4.9310   20.0080 O   0  0  0  0  0  0  0  0  0  0  0  0
    6.9450   -4.4680   21.7190 N   0  0  0  0  0  0  0  0  0  0  0  0
    6.4220   -5.5130   22.5360 C   0  0  0  0  0  0  0  0  0  0  0  0
    5.4840   -4.9020   23.5460 C   0  0  0  0  0  0  0  0  0  0  0  0
    6.2130   -3.8450   24.3740 C   0  0  0  0  0  0  0  0  0  0  0  0
    5.2570   -3.2360   25.3980 C   0  0  0  0  0  0  0  0  0  0  0  0
    4.5890   -2.3090   24.9770 O   0  0  0  0  0  0  0  0  0  0  0  0
    5.1570   -3.7280   26.7220 N   0  0  0  0  0  0  0  0  0  0  0  0
    4.6260   -2.9670   27.7880 C   0  0  0  0  0  0  0  0  0  0  0  0
    5.0290   -3.3980   29.0770 C   0  0  0  0  0  0  0  0  0  0  0  0
    4.9280   -4.8740   29.0670 N   0  0  0  0  0  0  0  0  0  0  0  0
    4.4080   -5.7880   30.0260 C   0  0  1  0  0  0  0  0  0  0  0  0
    3.2420   -6.4790   29.7330 C   0  0  0  0  0  0  0  0  0  0  0  0
    3.0540   -7.4300   30.8930 C   0  0  0  0  0  0  0  0  0  0  0  0
    4.1280   -7.3730   32.0130 C   0  0  1  0  0  0  0  0  0  0  0  0
    3.9750   -8.4580   33.0210 C   0  0  0  0  0  0  0  0  0  0  0  0
    2.7220   -8.1120   33.7700 C   0  0  0  0  0  0  0  0  0  0  0  0
    5.0960   -8.8160   33.7390 C   0  0  0  0  0  0  0  0  0  0  0  0
    5.4100   -7.1850   31.5330 C   0  0  0  0  0  0  0  0  0  0  0  0
    5.4690   -6.6000   30.2980 C   0  0  0  0  0  0  0  0  0  0  0  0
    6.0100   -5.4200   28.3020 C   0  0  0  0  0  0  0  0  0  0  0  0
    6.1750   -4.5630   27.0990 C   0  0  0  0  0  0  0  0  0  0  0  0
    6.7480   -2.7520   23.4370 C   0  0  0  0  0  0  0  0  0  0  0  0
    7.6390   -3.3690   22.3470 C   0  0  0  0  0  0  0  0  0  0  0  0
  1  2  1  0
  2  3  2  0
  2  4  1  0
  4  5  1  0
  5  6  1  0
  6  7  1  0
  7  8  1  0
  8  9  2  0
  8 10  1  0
 10 11  1  0
 11 12  1  0
 12 13  1  0
 14 13  1  6
 14 15  1  0
 15 16  1  0
 16 17  1  0
 17 18  1  6
 18 19  1  0
 18 20  1  0
 17 21  1  0
 14 22  1  0
 21 22  1  0
 13 23  1  0
 10 24  1  0
 23 24  1  0
  7 25  1  0
  4 26  1  0
 25 26  1  0
M  END
