piperidine-amides-9185-covalent
     RDKit          3D

 20 20  0  0  0  0  0  0  0  0999 V2000
    7.1380   -3.2920   19.1940 C   0  0  0  0  0  0  0  0  0  0  0  0
    6.3400   -3.9850   20.2060 C   0  0  0  0  0  0  0  0  0  0  0  0
    5.2860   -4.5520   19.8770 O   0  0  0  0  0  0  0  0  0  0  0  0
    6.7850   -4.0500   21.5280 N   0  0  0  0  0  0  0  0  0  0  0  0
    7.6810   -3.0410   22.0350 C   0  0  0  0  0  0  0  0  0  0  0  0
    7.4650   -3.0080   23.5140 C   0  0  0  0  0  0  0  0  0  0  0  0
    6.1030   -3.5160   23.8830 C   0  0  0  0  0  0  0  0  0  0  0  0
    5.8220   -3.3670   25.3260 C   0  0  0  0  0  0  0  0  0  0  0  0
    4.6400   -3.1260   25.7280 O   0  0  0  0  0  0  0  0  0  0  0  0
    6.8370   -3.4710   26.3040 N   0  0  0  0  0  0  0  0  0  0  0  0
    6.5230   -4.0290   27.6380 C   0  0  0  0  0  0  0  0  0  0  0  0
    7.2920   -5.2770   27.8410 C   0  0  1  0  0  0  0  0  0  0  0  0
    6.5690   -6.2990   27.9910 O   0  0  0  0  0  0  0  0  0  0  0  0
    8.1690   -5.6590   26.7270 C   0  0  0  0  0  0  0  0  0  0  0  0
    9.3440   -4.7440   26.5100 C   0  0  0  0  0  0  0  0  0  0  0  0
   10.4100   -5.3370   25.9340 O   0  0  0  0  0  0  0  0  0  0  0  0
    9.2480   -3.4070   26.8870 O   0  0  0  0  0  0  0  0  0  0  0  0
    8.7730   -2.9620   28.1590 C   0  0  0  0  0  0  0  0  0  0  0  0
    5.9450   -4.9560   23.4930 C   0  0  0  0  0  0  0  0  0  0  0  0
    6.4680   -5.2420   22.2550 C   0  0  0  0  0  0  0  0  0  0  0  0
  1  2  1  0
  2  3  2  0
  2  4  1  0
  4  5  1  0
  5  6  1  0
  6  7  1  0
  7  8  1  0
  8  9  2  0
  8 10  1  0
 10 11  1  0
 11 12  1  0
 12 13  1  6
 12 14  1  0
 14 15  1  0
 15 16  2  0
 15 17  1  0
 17 18  1  0
  7 19  1  0
  4 20  1  0
 19 20  1  0
M  END
