piperidine-amides-25853-covalent
     RDKit          3D

 25 27  0  0  0  0  0  0  0  0999 V2000
    7.0540   -3.3210   19.3380 C   0  0  0  0  0  0  0  0  0  0  0  0
    6.3660   -4.1910   20.3220 C   0  0  0  0  0  0  0  0  0  0  0  0
    5.3400   -4.7570   19.9530 O   0  0  0  0  0  0  0  0  0  0  0  0
    6.9170   -4.3840   21.5920 N   0  0  0  0  0  0  0  0  0  0  0  0
    6.6630   -5.5770   22.3560 C   0  0  0  0  0  0  0  0  0  0  0  0
    5.8390   -5.2370   23.5690 C   0  0  0  0  0  0  0  0  0  0  0  0
    6.4600   -4.0400   24.2910 C   0  0  0  0  0  0  0  0  0  0  0  0
    5.5460   -3.6840   25.4040 C   0  0  0  0  0  0  0  0  0  0  0  0
    4.7390   -2.7570   25.2530 O   0  0  0  0  0  0  0  0  0  0  0  0
    5.6300   -4.4110   26.6320 N   0  0  0  0  0  0  0  0  0  0  0  0
    6.9810   -4.6160   26.9450 C   0  0  0  0  0  0  0  0  0  0  0  0
    7.2120   -5.9480   27.5950 C   0  0  0  0  0  0  0  0  0  0  0  0
    6.6560   -5.7680   28.8060 O   0  0  0  0  0  0  0  0  0  0  0  0
    6.2290   -4.5450   29.0080 C   0  0  0  0  0  0  0  0  0  0  0  0
    5.6320   -5.3120   28.0160 C   0  0  0  0  0  0  0  0  0  0  0  0
    4.6230   -4.9790   27.1650 C   0  0  0  0  0  0  0  0  0  0  0  0
    3.8050   -3.7520   26.9610 C   0  0  0  0  0  0  0  0  0  0  0  0
    4.3000   -2.7840   27.9500 C   0  0  0  0  0  0  0  0  0  0  0  0
    5.4320   -3.2180   28.8790 C   0  0  0  0  0  0  0  0  0  0  0  0
    4.7510   -3.9600   27.7660 C   0  0  2  0  0  0  0  0  0  0  0  0
    3.7920   -4.9970   28.3580 C   0  0  0  0  0  0  0  0  0  0  0  0
    3.7250   -5.0820   29.7570 N   0  0  0  0  0  0  0  0  0  0  0  0
    3.0560   -5.7430   27.6580 O   0  0  0  0  0  0  0  0  0  0  0  0
    6.7990   -2.9040   23.4050 C   0  0  0  0  0  0  0  0  0  0  0  0
    7.6360   -3.3120   22.2500 C   0  0  0  0  0  0  0  0  0  0  0  0
  1  2  1  0
  2  3  2  0
  2  4  1  0
  4  5  1  0
  5  6  1  0
  6  7  1  0
  7  8  1  0
  8  9  2  0
  8 10  1  0
 10 11  1  0
 11 12  1  0
 12 13  1  0
 13 14  1  0
 14 15  1  0
 15 16  2  0
 16 17  1  0
 17 18  2  0
 14 19  2  0
 18 19  1  0
 10 20  1  0
 19 20  1  0
 20 21  1  1
 21 22  1  0
 21 23  2  0
  7 24  1  0
  4 25  1  0
 24 25  1  0
M  END
