piperidine-amides-14949-covalent
     RDKit          3D

 21 22  0  0  0  0  0  0  0  0999 V2000
    7.1150   -3.2800   19.2170 C   0  0  0  0  0  0  0  0  0  0  0  0
    6.3780   -4.0580   20.2090 C   0  0  0  0  0  0  0  0  0  0  0  0
    5.2810   -4.5390   19.8820 O   0  0  0  0  0  0  0  0  0  0  0  0
    6.9470   -4.3070   21.4830 N   0  0  0  0  0  0  0  0  0  0  0  0
    7.6080   -3.2300   22.1560 C   0  0  0  0  0  0  0  0  0  0  0  0
    6.7130   -2.7170   23.2470 C   0  0  0  0  0  0  0  0  0  0  0  0
    6.5070   -3.8520   24.2270 C   0  0  0  0  0  0  0  0  0  0  0  0
    5.6920   -3.3810   25.3910 C   0  0  0  0  0  0  0  0  0  0  0  0
    4.4720   -3.4150   25.2420 O   0  0  0  0  0  0  0  0  0  0  0  0
    6.3430   -2.9440   26.5370 N   0  0  0  0  0  0  0  0  0  0  0  0
    6.5590   -1.5640   26.8020 C   0  0  0  0  0  0  0  0  0  0  0  0
    5.5710   -0.6910   26.3050 C   0  0  1  0  0  0  0  0  0  0  0  0
    4.2510   -1.0790   26.4180 C   0  0  0  0  0  0  0  0  0  0  0  0
    3.5400   -0.0710   26.9960 C   0  0  0  0  0  0  0  0  0  0  0  0
    2.1740   -0.2470   27.1580 O   0  0  0  0  0  0  0  0  0  0  0  0
    4.3620    0.9970   27.3260 N   0  0  0  0  0  0  0  0  0  0  0  0
    4.2540    1.5890   28.6600 C   0  0  0  0  0  0  0  0  0  0  0  0
    4.3740    0.5060   29.7560 C   0  0  0  0  0  0  0  0  0  0  0  0
    5.6660    0.5980   26.8510 C   0  0  0  0  0  0  0  0  0  0  0  0
    5.9010   -5.0430   23.5680 C   0  0  0  0  0  0  0  0  0  0  0  0
    6.4680   -5.4520   22.1980 C   0  0  0  0  0  0  0  0  0  0  0  0
  1  2  1  0
  2  3  2  0
  2  4  1  0
  4  5  1  0
  5  6  1  0
  6  7  1  0
  7  8  1  0
  8  9  2  0
  8 10  1  0
 10 11  1  0
 12 11  1  1
 12 13  1  0
 13 14  1  0
 14 15  2  0
 14 16  1  0
 16 17  1  0
 17 18  1  0
 12 19  1  0
 16 19  1  0
  7 20  1  0
  4 21  1  0
 20 21  1  0
M  END
