piperidine-amides-2153-covalent
     RDKit          3D

 31 33  0  0  0  0  0  0  0  0999 V2000
    7.1170   -3.2820   19.2680 C   0  0  0  0  0  0  0  0  0  0  0  0
    6.3330   -4.0420   20.2730 C   0  0  0  0  0  0  0  0  0  0  0  0
    5.2890   -4.5700   19.8920 O   0  0  0  0  0  0  0  0  0  0  0  0
    6.8200   -4.1690   21.5740 N   0  0  0  0  0  0  0  0  0  0  0  0
    7.7070   -3.1790   22.1390 C   0  0  0  0  0  0  0  0  0  0  0  0
    7.2900   -2.9110   23.5470 C   0  0  0  0  0  0  0  0  0  0  0  0
    5.9500   -3.6060   23.7840 C   0  0  0  0  0  0  0  0  0  0  0  0
    5.5410   -3.3670   25.1730 C   0  0  0  0  0  0  0  0  0  0  0  0
    4.3390   -3.2760   25.4460 O   0  0  0  0  0  0  0  0  0  0  0  0
    6.5200   -3.2540   26.1650 N   0  0  0  0  0  0  0  0  0  0  0  0
    6.3610   -2.2900   27.2130 C   0  0  2  0  0  0  0  0  0  0  0  0
    6.3340   -3.0990   28.5020 C   0  0  0  0  0  0  0  0  0  0  0  0
    5.9770   -2.3050   29.5950 O   0  0  0  0  0  0  0  0  0  0  0  0
    5.7640   -0.9790   29.6160 C   0  0  0  0  0  0  0  0  0  0  0  0
    6.6090   -0.2960   28.8280 C   0  0  0  0  0  0  0  0  0  0  0  0
    6.4460    1.0100   28.8040 C   0  0  0  0  0  0  0  0  0  0  0  0
    5.4670    1.8400   29.5240 C   0  0  0  0  0  0  0  0  0  0  0  0
    4.5670    0.9880   30.3840 C   0  0  0  0  0  0  0  0  0  0  0  0
    4.6050   -0.5580   30.5410 C   0  0  0  0  0  0  0  0  0  0  0  0
    3.5810   -1.1290   31.4730 C   0  0  0  0  0  0  0  0  0  0  0  0
    2.4340   -0.4220   31.7150 F   0  0  0  0  0  0  0  0  0  0  0  0
    3.2060   -2.3620   30.9770 F   0  0  0  0  0  0  0  0  0  0  0  0
    4.1520   -1.2260   32.7130 F   0  0  0  0  0  0  0  0  0  0  0  0
    5.3010   -1.2860   26.9130 C   0  0  0  0  0  0  0  0  0  0  0  0
    4.2570   -2.2250   27.4470 C   0  0  0  0  0  0  0  0  0  0  0  0
    2.8410   -1.7460   27.4160 C   0  0  0  0  0  0  0  0  0  0  0  0
    2.5990   -0.3490   26.8440 C   0  0  0  0  0  0  0  0  0  0  0  0
    3.6620    0.4270   26.3800 C   0  0  0  0  0  0  0  0  0  0  0  0
    5.1000   -0.0400   26.4030 C   0  0  0  0  0  0  0  0  0  0  0  0
    5.9870   -5.1270   23.5860 C   0  0  0  0  0  0  0  0  0  0  0  0
    6.6190   -5.4380   22.2350 C   0  0  0  0  0  0  0  0  0  0  0  0
  1  2  1  0
  2  3  2  0
  2  4  1  0
  4  5  1  0
  5  6  1  0
  6  7  1  0
  7  8  1  0
  8  9  2  0
  8 10  1  0
 10 11  1  0
 11 12  1  1
 12 13  1  0
 13 14  1  0
 14 15  2  0
 15 16  1  0
 16 17  2  0
 17 18  1  0
 14 19  1  0
 18 19  2  0
 19 20  1  0
 20 21  1  0
 20 22  1  0
 20 23  1  0
 11 24  1  0
 24 25  2  0
 25 26  1  0
 26 27  2  0
 27 28  1  0
 24 29  1  0
 28 29  2  0
  7 30  1  0
  4 31  1  0
 30 31  1  0
M  END
