piperidine-amides-6261-covalent
     RDKit          3D

 26 28  0  0  0  0  0  0  0  0999 V2000
    7.0940   -3.2640   19.2600 C   0  0  0  0  0  0  0  0  0  0  0  0
    6.3610   -4.0650   20.2580 C   0  0  0  0  0  0  0  0  0  0  0  0
    5.3320   -4.6950   19.9320 O   0  0  0  0  0  0  0  0  0  0  0  0
    6.8220   -4.1610   21.5740 N   0  0  0  0  0  0  0  0  0  0  0  0
    7.7030   -3.1310   22.1000 C   0  0  0  0  0  0  0  0  0  0  0  0
    7.4530   -3.0300   23.6010 C   0  0  0  0  0  0  0  0  0  0  0  0
    6.0530   -3.5520   23.8350 C   0  0  0  0  0  0  0  0  0  0  0  0
    5.6130   -3.2870   25.2090 C   0  0  0  0  0  0  0  0  0  0  0  0
    4.4000   -3.0830   25.4280 O   0  0  0  0  0  0  0  0  0  0  0  0
    6.5760   -3.2660   26.2300 N   0  0  0  0  0  0  0  0  0  0  0  0
    6.1930   -3.0700   27.5880 C   0  0  0  0  0  0  0  0  0  0  0  0
    6.4680   -4.3030   28.4340 C   0  0  0  0  0  0  0  0  0  0  0  0
    5.8480   -5.4460   27.8810 O   0  0  0  0  0  0  0  0  0  0  0  0
    5.0490   -6.2130   28.6850 C   0  0  0  0  0  0  0  0  0  0  0  0
    5.4880   -6.6560   29.8600 C   0  0  0  0  0  0  0  0  0  0  0  0
    4.6670   -7.3910   30.6410 C   0  0  0  0  0  0  0  0  0  0  0  0
    3.3890   -7.7040   30.2600 C   0  0  0  0  0  0  0  0  0  0  0  0
    2.6350   -7.3420   28.9690 C   0  0  0  0  0  0  0  0  0  0  0  0
    3.7730   -6.5310   28.3010 C   0  0  0  0  0  0  0  0  0  0  0  0
    1.2870   -7.6760   28.5550 C   0  0  0  0  0  0  0  0  0  0  0  0
    0.8220   -8.7260   29.4640 C   0  0  0  0  0  0  0  0  0  0  0  0
    1.2700   -8.4610   30.7780 C   0  0  0  0  0  0  0  0  0  0  0  0
    0.4590   -8.2480   31.6900 O   0  0  0  0  0  0  0  0  0  0  0  0
    2.5850   -8.4390   31.0730 N   0  0  0  0  0  0  0  0  0  0  0  0
    6.0710   -5.0650   23.6460 C   0  0  0  0  0  0  0  0  0  0  0  0
    6.6630   -5.4000   22.3040 C   0  0  0  0  0  0  0  0  0  0  0  0
  1  2  1  0
  2  3  2  0
  2  4  1  0
  4  5  1  0
  5  6  1  0
  6  7  1  0
  7  8  1  0
  8  9  2  0
  8 10  1  0
 10 11  1  0
 11 12  1  0
 12 13  1  0
 13 14  1  0
 14 15  2  0
 15 16  1  0
 16 17  2  0
 17 18  1  0
 14 19  1  0
 18 19  2  0
 18 20  1  0
 20 21  1  0
 21 22  1  0
 22 23  2  0
 17 24  1  0
 22 24  1  0
  7 25  1  0
  4 26  1  0
 25 26  1  0
M  END
