piperidine-amides-12755-covalent
     RDKit          3D

 22 23  0  0  0  0  0  0  0  0999 V2000
    7.1440   -3.2710   19.2300 C   0  0  0  0  0  0  0  0  0  0  0  0
    6.4090   -4.0510   20.2500 C   0  0  0  0  0  0  0  0  0  0  0  0
    5.3240   -4.5540   19.8930 O   0  0  0  0  0  0  0  0  0  0  0  0
    6.9470   -4.2520   21.5310 N   0  0  0  0  0  0  0  0  0  0  0  0
    6.4820   -5.3240   22.3270 C   0  0  0  0  0  0  0  0  0  0  0  0
    5.9560   -4.9090   23.6330 C   0  0  0  0  0  0  0  0  0  0  0  0
    6.5500   -3.6900   24.2650 C   0  0  0  0  0  0  0  0  0  0  0  0
    5.5550   -3.0540   25.1580 C   0  0  0  0  0  0  0  0  0  0  0  0
    4.5380   -2.5600   24.6470 O   0  0  0  0  0  0  0  0  0  0  0  0
    5.7220   -3.0110   26.5460 N   0  0  0  0  0  0  0  0  0  0  0  0
    5.1230   -4.0670   27.3730 C   0  0  1  0  0  0  0  0  0  0  0  0
    5.3030   -5.3910   26.6990 C   0  0  0  0  0  0  0  0  0  0  0  0
    5.7780   -4.1550   28.6580 C   0  0  0  0  0  0  0  0  0  0  0  0
    6.9260   -4.7620   28.4760 C   0  0  0  0  0  0  0  0  0  0  0  0
    7.1870   -6.0440   28.6560 C   0  0  0  0  0  0  0  0  0  0  0  0
    6.2470   -6.9230   29.1100 C   0  0  0  0  0  0  0  0  0  0  0  0
    8.5350   -6.1590   28.2720 N   0  0  0  0  0  0  0  0  0  0  0  0
    9.0060   -4.9990   27.9150 O   0  0  0  0  0  0  0  0  0  0  0  0
    7.9660   -4.0390   28.0360 C   0  0  0  0  0  0  0  0  0  0  0  0
    8.0220   -2.6970   27.7600 C   0  0  0  0  0  0  0  0  0  0  0  0
    7.0320   -2.6670   23.2660 C   0  0  0  0  0  0  0  0  0  0  0  0
    7.8100   -3.3010   22.1900 C   0  0  0  0  0  0  0  0  0  0  0  0
  1  2  1  0
  2  3  2  0
  2  4  1  0
  4  5  1  0
  5  6  1  0
  6  7  1  0
  7  8  1  0
  8  9  2  0
  8 10  1  0
 10 11  1  0
 11 12  1  6
 11 13  1  0
 13 14  1  0
 14 15  1  0
 15 16  1  0
 15 17  2  0
 17 18  1  0
 14 19  2  0
 18 19  1  0
 19 20  1  0
  7 21  1  0
  4 22  1  0
 21 22  1  0
M  END
