piperidine-amides-31391-covalent
     RDKit          3D

 28 31  0  0  0  0  0  0  0  0999 V2000
    7.1320   -3.3460   19.4180 C   0  0  0  0  0  0  0  0  0  0  0  0
    6.4400   -4.1840   20.3670 C   0  0  0  0  0  0  0  0  0  0  0  0
    5.4150   -4.8360   19.9800 O   0  0  0  0  0  0  0  0  0  0  0  0
    6.8990   -4.3200   21.6890 N   0  0  0  0  0  0  0  0  0  0  0  0
    6.4430   -5.4960   22.4660 C   0  0  0  0  0  0  0  0  0  0  0  0
    5.5240   -4.7780   23.5350 C   0  0  0  0  0  0  0  0  0  0  0  0
    6.4470   -3.7990   24.2230 C   0  0  0  0  0  0  0  0  0  0  0  0
    5.8690   -3.1800   25.5850 C   0  0  0  0  0  0  0  0  0  0  0  0
    5.6470   -1.9930   25.4470 O   0  0  0  0  0  0  0  0  0  0  0  0
    5.7530   -4.0810   26.4730 N   0  0  0  0  0  0  0  0  0  0  0  0
    5.3550   -5.2200   26.9850 C   0  0  0  0  0  0  0  0  0  0  0  0
    5.9740   -6.2440   27.5610 C   0  0  0  0  0  0  0  0  0  0  0  0
    6.3290   -5.7230   28.8230 N   0  0  0  0  0  0  0  0  0  0  0  0
    5.6160   -6.0940   29.9170 C   0  0  0  0  0  0  0  0  0  0  0  0
    5.9770   -6.3950   31.2480 O   0  0  0  0  0  0  0  0  0  0  0  0
    4.1690   -6.2920   29.6340 C   0  0  2  0  0  0  0  0  0  0  0  0
    3.8080   -5.0230   30.4160 C   0  0  0  0  0  0  0  0  0  0  0  0
    3.5170   -5.7700   31.5700 C   0  0  0  0  0  0  0  0  0  0  0  0
    3.3300   -4.9370   32.7490 C   0  0  0  0  0  0  0  0  0  0  0  0
    3.0390   -6.0520   33.7910 C   0  0  0  0  0  0  0  0  0  0  0  0
    2.9750   -7.5760   33.5940 C   0  0  0  0  0  0  0  0  0  0  0  0
    3.1970   -8.0030   32.3700 C   0  0  0  0  0  0  0  0  0  0  0  0
    3.4650   -7.1560   31.3590 C   0  0  0  0  0  0  0  0  0  0  0  0
    3.6900   -7.4580   30.1700 O   0  0  0  0  0  0  0  0  0  0  0  0
    6.6190   -4.3180   28.8020 C   0  0  0  0  0  0  0  0  0  0  0  0
    6.2240   -3.4660   27.7210 C   0  0  0  0  0  0  0  0  0  0  0  0
    7.0620   -2.7270   23.4010 C   0  0  0  0  0  0  0  0  0  0  0  0
    7.7870   -3.3250   22.2510 C   0  0  0  0  0  0  0  0  0  0  0  0
  1  2  1  0
  2  3  2  0
  2  4  1  0
  4  5  1  0
  5  6  1  0
  6  7  1  0
  7  8  1  0
  8  9  2  0
  8 10  1  0
 10 11  1  0
 11 12  1  0
 12 13  1  0
 13 14  1  0
 14 15  2  0
 16 14  1  1
 16 17  1  0
 17 18  1  0
 18 19  1  0
 19 20  2  0
 20 21  1  0
 21 22  2  0
 18 23  2  0
 22 23  1  0
 16 24  1  0
 23 24  1  0
 13 25  1  0
 10 26  1  0
 25 26  1  0
  7 27  1  0
  4 28  1  0
 27 28  1  0
M  END
