piperidine-amides-31566-covalent
     RDKit          3D

 27 30  0  0  0  0  0  0  0  0999 V2000
    6.9960   -3.4630   19.4160 C   0  0  0  0  0  0  0  0  0  0  0  0
    6.2970   -4.2690   20.3990 C   0  0  0  0  0  0  0  0  0  0  0  0
    5.3230   -4.9590   19.9880 O   0  0  0  0  0  0  0  0  0  0  0  0
    6.6690   -4.3550   21.7540 N   0  0  0  0  0  0  0  0  0  0  0  0
    7.5900   -3.2910   22.2230 C   0  0  0  0  0  0  0  0  0  0  0  0
    7.3280   -3.2640   23.7710 C   0  0  0  0  0  0  0  0  0  0  0  0
    6.0580   -3.9720   24.0150 C   0  0  0  0  0  0  0  0  0  0  0  0
    5.2950   -3.4580   25.3310 C   0  0  0  0  0  0  0  0  0  0  0  0
    4.3120   -2.8550   24.9430 O   0  0  0  0  0  0  0  0  0  0  0  0
    5.8420   -3.7520   26.4690 N   0  0  0  0  0  0  0  0  0  0  0  0
    6.6140   -3.9910   27.5440 C   0  0  0  0  0  0  0  0  0  0  0  0
    7.2660   -5.0450   28.1030 C   0  0  0  0  0  0  0  0  0  0  0  0
    6.2180   -5.6250   28.7500 C   0  0  0  0  0  0  0  0  0  0  0  0
    5.9260   -6.6830   29.5280 N   0  0  0  0  0  0  0  0  0  0  0  0
    4.5620   -6.4940   29.7310 C   0  0  0  0  0  0  0  0  0  0  0  0
    4.0380   -5.4230   29.1460 N   0  0  0  0  0  0  0  0  0  0  0  0
    4.9770   -4.8150   28.5150 C   0  0  0  0  0  0  0  0  0  0  0  0
    5.0130   -3.6130   27.7120 C   0  0  2  0  0  0  0  0  0  0  0  0
    3.7210   -3.2030   27.3110 C   0  0  0  0  0  0  0  0  0  0  0  0
    3.5080   -4.5720   26.7370 C   0  0  0  0  0  0  0  0  0  0  0  0
    2.1100   -4.7220   26.0930 C   0  0  0  0  0  0  0  0  0  0  0  0
    1.2130   -3.6650   26.0870 C   0  0  0  0  0  0  0  0  0  0  0  0
   -0.3580   -3.8520   25.3640 Cl  0  0  0  0  0  0  0  0  0  0  0  0
    1.6150   -2.4570   26.6830 C   0  0  0  0  0  0  0  0  0  0  0  0
    2.8300   -2.1880   27.2920 C   0  0  0  0  0  0  0  0  0  0  0  0
    6.1030   -5.4230   23.7380 C   0  0  0  0  0  0  0  0  0  0  0  0
    6.6200   -5.6230   22.4500 C   0  0  0  0  0  0  0  0  0  0  0  0
  1  2  1  0
  2  3  2  0
  2  4  1  0
  4  5  1  0
  5  6  1  0
  6  7  1  0
  7  8  1  0
  8  9  2  0
  8 10  1  0
 10 11  1  0
 11 12  1  0
 12 13  1  0
 13 14  1  0
 14 15  2  0
 15 16  1  0
 13 17  2  0
 16 17  1  0
 10 18  1  0
 17 18  1  0
 18 19  1  6
 19 20  2  0
 20 21  1  0
 21 22  2  0
 22 23  1  0
 22 24  1  0
 19 25  1  0
 24 25  2  0
  7 26  1  0
  4 27  1  0
 26 27  1  0
M  END
