piperidine-amides-13285-covalent
     RDKit          3D

 21 22  0  0  0  0  0  0  0  0999 V2000
    7.1050   -3.2670   19.1560 C   0  0  0  0  0  0  0  0  0  0  0  0
    6.3500   -3.9920   20.2030 C   0  0  0  0  0  0  0  0  0  0  0  0
    5.2630   -4.4930   19.8570 O   0  0  0  0  0  0  0  0  0  0  0  0
    6.8610   -4.1530   21.4940 N   0  0  0  0  0  0  0  0  0  0  0  0
    6.4840   -5.2960   22.2530 C   0  0  0  0  0  0  0  0  0  0  0  0
    6.0440   -4.9820   23.6160 C   0  0  0  0  0  0  0  0  0  0  0  0
    6.6850   -3.7860   24.2040 C   0  0  0  0  0  0  0  0  0  0  0  0
    5.9460   -3.3260   25.4000 C   0  0  0  0  0  0  0  0  0  0  0  0
    4.9620   -2.5740   25.2530 O   0  0  0  0  0  0  0  0  0  0  0  0
    6.3550   -3.7610   26.6670 N   0  0  0  0  0  0  0  0  0  0  0  0
    6.7740   -5.1710   26.8390 C   0  0  0  0  0  0  0  0  0  0  0  0
    6.8600   -5.6030   28.2570 C   0  0  0  0  0  0  0  0  0  0  0  0
    5.6410   -5.6870   29.0640 C   0  0  2  0  0  0  0  0  0  0  0  0
    5.2290   -6.6380   29.7390 C   0  0  0  0  0  0  0  0  0  0  0  0
    4.6500   -6.8320   28.4680 C   0  0  1  0  0  0  0  0  0  0  0  0
    3.2830   -6.8110   28.4350 C   0  0  0  0  0  0  0  0  0  0  0  0
    2.6190   -7.1240   27.2700 F   0  0  0  0  0  0  0  0  0  0  0  0
    2.8920   -5.4890   28.7490 F   0  0  0  0  0  0  0  0  0  0  0  0
    2.7990   -7.5540   29.4640 F   0  0  0  0  0  0  0  0  0  0  0  0
    6.9660   -2.6670   23.2530 C   0  0  0  0  0  0  0  0  0  0  0  0
    7.6400   -3.1480   22.1730 C   0  0  0  0  0  0  0  0  0  0  0  0
  1  2  1  0
  2  3  2  0
  2  4  1  0
  4  5  1  0
  5  6  1  0
  6  7  1  0
  7  8  1  0
  8  9  2  0
  8 10  1  0
 10 11  1  0
 11 12  1  0
 13 12  1  6
 13 14  1  0
 13 15  1  0
 14 15  1  0
 15 16  1  1
 16 17  1  0
 16 18  1  0
 16 19  1  0
  7 20  1  0
  4 21  1  0
 20 21  1  0
M  END
