piperidine-amides-1804-covalent
     RDKit          3D

 19 20  0  0  0  0  0  0  0  0999 V2000
    7.0780   -3.2680   19.1880 C   0  0  0  0  0  0  0  0  0  0  0  0
    6.3310   -4.0370   20.2210 C   0  0  0  0  0  0  0  0  0  0  0  0
    5.2720   -4.5480   19.8760 O   0  0  0  0  0  0  0  0  0  0  0  0
    6.8560   -4.1960   21.5040 N   0  0  0  0  0  0  0  0  0  0  0  0
    7.6560   -3.1990   22.1460 C   0  0  0  0  0  0  0  0  0  0  0  0
    6.8620   -2.5280   23.2300 C   0  0  0  0  0  0  0  0  0  0  0  0
    5.7180   -3.4110   23.7900 C   0  0  0  0  0  0  0  0  0  0  0  0
    5.5750   -3.0450   25.2160 C   0  0  0  0  0  0  0  0  0  0  0  0
    4.4980   -3.2650   25.7880 O   0  0  0  0  0  0  0  0  0  0  0  0
    6.6340   -2.4430   25.9300 N   0  0  0  0  0  0  0  0  0  0  0  0
    7.3470   -3.2230   26.9050 C   0  0  0  0  0  0  0  0  0  0  0  0
    8.2500   -4.1300   26.1210 C   0  0  0  0  0  0  0  0  0  0  0  0
    8.6610   -5.2260   26.9710 N   0  0  0  0  0  0  0  0  0  0  0  0
    9.5470   -6.0020   26.1420 C   0  0  0  0  0  0  0  0  0  0  0  0
    9.0850   -4.7460   28.2350 C   0  0  0  0  0  0  0  0  0  0  0  0
    9.2480   -3.5120   25.1810 C   0  0  0  0  0  0  0  0  0  0  0  0
    8.0450   -4.2620   24.6550 C   0  0  0  0  0  0  0  0  0  0  0  0
    5.8280   -4.9060   23.5820 C   0  0  0  0  0  0  0  0  0  0  0  0
    6.4630   -5.3350   22.2910 C   0  0  0  0  0  0  0  0  0  0  0  0
  1  2  1  0
  2  3  2  0
  2  4  1  0
  4  5  1  0
  5  6  1  0
  6  7  1  0
  7  8  1  0
  8  9  2  0
  8 10  1  0
 10 11  1  0
 11 12  1  0
 12 13  1  0
 13 14  1  0
 13 15  1  0
 12 16  1  0
 12 17  1  0
 16 17  1  0
  7 18  1  0
  4 19  1  0
 18 19  1  0
M  END
