piperidine-amides-10957-covalent
     RDKit          3D

 21 21  0  0  0  0  0  0  0  0999 V2000
    7.0540   -3.3080   19.2940 C   0  0  0  0  0  0  0  0  0  0  0  0
    6.3430   -4.1030   20.3020 C   0  0  0  0  0  0  0  0  0  0  0  0
    5.3330   -4.7340   19.9480 O   0  0  0  0  0  0  0  0  0  0  0  0
    6.7840   -4.2190   21.6350 N   0  0  0  0  0  0  0  0  0  0  0  0
    6.7020   -5.4800   22.3420 C   0  0  0  0  0  0  0  0  0  0  0  0
    6.1040   -5.1850   23.6930 C   0  0  0  0  0  0  0  0  0  0  0  0
    6.0520   -3.7150   23.9750 C   0  0  0  0  0  0  0  0  0  0  0  0
    5.5750   -3.3530   25.3410 C   0  0  0  0  0  0  0  0  0  0  0  0
    4.4890   -2.7160   25.4650 O   0  0  0  0  0  0  0  0  0  0  0  0
    6.2460   -3.6630   26.5510 N   0  0  0  0  0  0  0  0  0  0  0  0
    6.1300   -4.9980   27.2110 C   0  0  0  0  0  0  0  0  0  0  0  0
    4.7240   -5.3730   27.3420 C   0  0  0  0  0  0  0  0  0  0  0  0
    4.0570   -6.0160   26.1870 C   0  0  0  0  0  0  0  0  0  0  0  0
    3.0950   -7.1200   26.5700 C   0  0  0  0  0  0  0  0  0  0  0  0
    2.7440   -8.0070   25.3850 C   0  0  0  0  0  0  0  0  0  0  0  0
    1.3360   -7.7420   24.9750 C   0  0  0  0  0  0  0  0  0  0  0  0
    0.9380   -8.2710   23.7700 C   0  0  0  0  0  0  0  0  0  0  0  0
   -0.0180   -9.3040   23.7320 C   0  0  0  0  0  0  0  0  0  0  0  0
   -0.6730   -9.2500   22.4950 O   0  0  0  0  0  0  0  0  0  0  0  0
    7.3810   -3.0140   23.6670 C   0  0  0  0  0  0  0  0  0  0  0  0
    7.6380   -3.1630   22.1610 C   0  0  0  0  0  0  0  0  0  0  0  0
  1  2  1  0
  2  3  2  0
  2  4  1  0
  4  5  1  0
  5  6  1  0
  6  7  1  0
  7  8  1  0
  8  9  2  0
  8 10  1  0
 10 11  1  0
 11 12  1  0
 12 13  1  0
 13 14  1  0
 14 15  1  0
 15 16  1  0
 16 17  1  0
 17 18  1  0
 18 19  1  0
  7 20  1  0
  4 21  1  0
 20 21  1  0
M  END
