piperidine-amides-32798-covalent
     RDKit          3D

 24 25  0  0  0  0  0  0  0  0999 V2000
    7.0960   -3.2630   19.2460 C   0  0  0  0  0  0  0  0  0  0  0  0
    6.3450   -4.0570   20.2580 C   0  0  0  0  0  0  0  0  0  0  0  0
    5.2960   -4.6250   19.9110 O   0  0  0  0  0  0  0  0  0  0  0  0
    6.8520   -4.1980   21.5690 N   0  0  0  0  0  0  0  0  0  0  0  0
    6.6210   -5.4030   22.3200 C   0  0  0  0  0  0  0  0  0  0  0  0
    5.9430   -4.9850   23.6290 C   0  0  0  0  0  0  0  0  0  0  0  0
    6.7140   -3.8320   24.1930 C   0  0  0  0  0  0  0  0  0  0  0  0
    6.0440   -3.2440   25.3820 C   0  0  0  0  0  0  0  0  0  0  0  0
    4.8790   -2.8590   25.2000 O   0  0  0  0  0  0  0  0  0  0  0  0
    6.6940   -3.1540   26.6310 N   0  0  0  0  0  0  0  0  0  0  0  0
    7.6170   -4.1420   27.0840 C   0  0  0  0  0  0  0  0  0  0  0  0
    7.2350   -5.4320   27.3980 C   0  0  0  0  0  0  0  0  0  0  0  0
    6.1190   -5.2870   28.3190 O   0  0  0  0  0  0  0  0  0  0  0  0
    6.0960   -2.6450   27.8230 C   0  0  0  0  0  0  0  0  0  0  0  0
    6.2220   -1.3080   28.1350 C   0  0  0  0  0  0  0  0  0  0  0  0
    6.7220   -0.9120   29.4750 C   0  0  0  0  0  0  0  0  0  0  0  0
    6.8990    0.5310   29.9600 C   0  0  0  0  0  0  0  0  0  0  0  0
    7.5340    1.0270   31.6750 Br  0  0  0  0  0  0  0  0  0  0  0  0
    6.4930    1.5390   28.8720 C   0  0  0  0  0  0  0  0  0  0  0  0
    6.0340    1.1240   27.6370 C   0  0  0  0  0  0  0  0  0  0  0  0
    5.8930   -0.3000   27.2560 C   0  0  0  0  0  0  0  0  0  0  0  0
    5.4280   -0.6090   26.0250 F   0  0  0  0  0  0  0  0  0  0  0  0
    6.9740   -2.7230   23.2190 C   0  0  0  0  0  0  0  0  0  0  0  0
    7.7130   -3.2140   22.1750 C   0  0  0  0  0  0  0  0  0  0  0  0
  1  2  1  0
  2  3  2  0
  2  4  1  0
  4  5  1  0
  5  6  1  0
  6  7  1  0
  7  8  1  0
  8  9  2  0
  8 10  1  0
 10 11  1  0
 11 12  1  0
 12 13  1  0
 10 14  1  0
 14 15  1  0
 15 16  2  0
 16 17  1  0
 17 18  1  0
 17 19  2  0
 19 20  1  0
 15 21  1  0
 20 21  2  0
 21 22  1  0
  7 23  1  0
  4 24  1  0
 23 24  1  0
M  END
