piperidine-amides-31067-covalent
     RDKit          3D

 28 30  0  0  0  0  0  0  0  0999 V2000
    7.1690   -3.2840   19.1960 C   0  0  0  0  0  0  0  0  0  0  0  0
    6.3680   -3.9910   20.1880 C   0  0  0  0  0  0  0  0  0  0  0  0
    5.2720   -4.4770   19.8590 O   0  0  0  0  0  0  0  0  0  0  0  0
    6.8540   -4.1940   21.4820 N   0  0  0  0  0  0  0  0  0  0  0  0
    6.7090   -5.4430   22.1650 C   0  0  0  0  0  0  0  0  0  0  0  0
    5.8840   -5.1300   23.3780 C   0  0  0  0  0  0  0  0  0  0  0  0
    6.2520   -3.8520   24.0910 C   0  0  0  0  0  0  0  0  0  0  0  0
    5.0030   -3.2020   24.5200 C   0  0  0  0  0  0  0  0  0  0  0  0
    3.9580   -3.2640   23.8260 O   0  0  0  0  0  0  0  0  0  0  0  0
    4.8930   -2.5170   25.7100 N   0  0  0  0  0  0  0  0  0  0  0  0
    5.9590   -1.5060   25.9800 C   0  0  0  0  0  0  0  0  0  0  0  0
    4.5040   -3.3760   26.8250 C   0  0  0  0  0  0  0  0  0  0  0  0
    5.7510   -3.5510   27.4360 C   0  0  0  0  0  0  0  0  0  0  0  0
    6.3750   -4.9330   27.1870 C   0  0  0  0  0  0  0  0  0  0  0  0
    5.6390   -5.8350   26.4700 O   0  0  0  0  0  0  0  0  0  0  0  0
    4.5150   -6.1530   27.2160 C   0  0  0  0  0  0  0  0  0  0  0  0
    4.9130   -7.0450   28.3500 C   0  0  0  0  0  0  0  0  0  0  0  0
    5.8890   -6.4800   29.1320 C   0  0  0  0  0  0  0  0  0  0  0  0
    7.7400   -5.1380   27.7740 C   0  0  0  0  0  0  0  0  0  0  0  0
    8.4170   -4.0770   28.5480 C   0  0  0  0  0  0  0  0  0  0  0  0
    7.7050   -2.7660   28.7560 C   0  0  0  0  0  0  0  0  0  0  0  0
    8.0100   -1.5100   29.4660 C   0  0  0  0  0  0  0  0  0  0  0  0
    7.6950   -0.4540   29.7790 C   0  0  0  0  0  0  0  0  0  0  0  0
    6.3790   -0.2060   29.2210 C   0  0  0  0  0  0  0  0  0  0  0  0
    5.7390   -1.1890   28.4620 C   0  0  0  0  0  0  0  0  0  0  0  0
    6.3670   -2.6050   28.1560 C   0  0  0  0  0  0  0  0  0  0  0  0
    7.0010   -2.7690   23.3700 C   0  0  0  0  0  0  0  0  0  0  0  0
    7.7160   -3.2690   22.1550 C   0  0  0  0  0  0  0  0  0  0  0  0
  1  2  1  0
  2  3  2  0
  2  4  1  0
  4  5  1  0
  5  6  1  0
  6  7  1  0
  7  8  1  0
  8  9  2  0
  8 10  1  0
 10 11  1  0
 10 12  1  0
 12 13  1  0
 13 14  2  0
 14 15  1  0
 15 16  1  0
 16 17  1  0
 17 18  1  0
 14 19  1  0
 19 20  2  0
 20 21  1  0
 21 22  1  0
 22 23  2  0
 23 24  1  0
 24 25  2  0
 13 26  1  0
 21 26  2  0
 25 26  1  0
  7 27  1  0
  4 28  1  0
 27 28  1  0
M  END
