piperidine-amides-5338-covalent
     RDKit          3D

 21 22  0  0  0  0  0  0  0  0999 V2000
    7.0780   -3.2920   19.1700 C   0  0  0  0  0  0  0  0  0  0  0  0
    6.3510   -4.0410   20.2210 C   0  0  0  0  0  0  0  0  0  0  0  0
    5.2700   -4.5590   19.8860 O   0  0  0  0  0  0  0  0  0  0  0  0
    6.8910   -4.2040   21.5070 N   0  0  0  0  0  0  0  0  0  0  0  0
    6.5110   -5.3080   22.3120 C   0  0  0  0  0  0  0  0  0  0  0  0
    6.0640   -4.9440   23.6670 C   0  0  0  0  0  0  0  0  0  0  0  0
    6.6280   -3.6880   24.2350 C   0  0  0  0  0  0  0  0  0  0  0  0
    5.7760   -3.2230   25.3670 C   0  0  0  0  0  0  0  0  0  0  0  0
    4.6950   -2.6810   25.0820 O   0  0  0  0  0  0  0  0  0  0  0  0
    6.1530   -3.3730   26.7210 N   0  0  0  0  0  0  0  0  0  0  0  0
    6.1030   -4.6710   27.4440 C   0  0  0  0  0  0  0  0  0  0  0  0
    4.7890   -4.9730   28.0340 C   0  0  0  0  0  0  0  0  0  0  0  0
    4.4750   -4.5060   29.1660 O   0  0  0  0  0  0  0  0  0  0  0  0
    3.8500   -5.7880   27.3410 N   0  0  0  0  0  0  0  0  0  0  0  0
    3.5490   -7.0870   27.9100 C   0  0  0  0  0  0  0  0  0  0  0  0
    2.1840   -7.2260   27.9980 C   0  0  0  0  0  0  0  0  0  0  0  0
    1.4150   -7.0020   26.8820 C   0  0  0  0  0  0  0  0  0  0  0  0
    1.9680   -6.0990   26.0440 C   0  0  0  0  0  0  0  0  0  0  0  0
    2.7900   -5.1620   26.6020 C   0  0  0  0  0  0  0  0  0  0  0  0
    6.9310   -2.6230   23.2560 C   0  0  0  0  0  0  0  0  0  0  0  0
    7.5890   -3.1110   22.1330 C   0  0  0  0  0  0  0  0  0  0  0  0
  1  2  1  0
  2  3  2  0
  2  4  1  0
  4  5  1  0
  5  6  1  0
  6  7  1  0
  7  8  1  0
  8  9  2  0
  8 10  1  0
 10 11  1  0
 11 12  1  0
 12 13  2  0
 12 14  1  0
 14 15  1  0
 15 16  1  0
 16 17  1  0
 17 18  1  0
 14 19  1  0
 18 19  1  0
  7 20  1  0
  4 21  1  0
 20 21  1  0
M  END
