piperidine-amides-35065-covalent
     RDKit          3D

 32 35  0  0  0  0  0  0  0  0999 V2000
    7.2210   -4.0170   19.6380 C   0  0  0  0  0  0  0  0  0  0  0  0
    6.0730   -4.0670   20.4360 C   0  0  0  0  0  0  0  0  0  0  0  0
    5.0480   -4.2240   19.7770 O   0  0  0  0  0  0  0  0  0  0  0  0
    6.3020   -4.0590   21.7990 N   0  0  0  0  0  0  0  0  0  0  0  0
    6.2820   -5.3510   22.4590 C   0  0  0  0  0  0  0  0  0  0  0  0
    6.0330   -5.1330   23.9120 C   0  0  0  0  0  0  0  0  0  0  0  0
    6.0130   -3.6280   24.1030 C   0  0  0  0  0  0  0  0  0  0  0  0
    5.5220   -3.3130   25.4410 C   0  0  0  0  0  0  0  0  0  0  0  0
    4.4820   -2.6590   25.5400 O   0  0  0  0  0  0  0  0  0  0  0  0
    6.1760   -3.7350   26.6000 N   0  0  0  0  0  0  0  0  0  0  0  0
    6.2400   -2.7730   27.6430 C   0  0  0  0  0  0  0  0  0  0  0  0
    6.2160   -3.7390   28.7580 C   0  0  0  0  0  0  0  0  0  0  0  0
    5.7470   -4.9710   28.4710 C   0  0  1  0  0  0  0  0  0  0  0  0
    4.4580   -5.3430   28.9740 N   0  0  0  0  0  0  0  0  0  0  0  0
    3.6450   -4.3940   29.6030 C   0  0  0  0  0  0  0  0  0  0  0  0
    3.3240   -3.2240   28.9450 O   0  0  0  0  0  0  0  0  0  0  0  0
    3.3110   -4.7720   30.7160 O   0  0  0  0  0  0  0  0  0  0  0  0
    3.7590   -6.1250   30.9670 C   0  0  1  0  0  0  0  0  0  0  0  0
    2.6820   -7.1270   31.1080 C   0  0  0  0  0  0  0  0  0  0  0  0
    2.7600   -7.8600   29.9170 N   0  0  0  0  0  0  0  0  0  0  0  0
    1.5000   -8.3230   29.3820 C   0  0  0  0  0  0  0  0  0  0  0  0
    1.3120   -8.5460   28.0460 O   0  0  0  0  0  0  0  0  0  0  0  0
    0.4010   -8.5440   30.2290 O   0  0  0  0  0  0  0  0  0  0  0  0
    0.3390   -9.6760   31.0940 C   0  0  0  0  0  0  0  0  0  0  0  0
    1.3600   -9.6060   32.1830 C   0  0  0  0  0  0  0  0  0  0  0  0
   -1.0160   -9.6600   31.7660 C   0  0  0  0  0  0  0  0  0  0  0  0
    0.4690  -10.9810   30.3470 C   0  0  0  0  0  0  0  0  0  0  0  0
    3.7800   -7.6300   29.0620 C   0  0  0  0  0  0  0  0  0  0  0  0
    4.5790   -6.5110   29.7390 C   0  0  1  0  0  0  0  0  0  0  0  0
    5.9050   -5.0760   27.0900 C   0  0  0  0  0  0  0  0  0  0  0  0
    7.3350   -3.0670   23.7210 C   0  0  0  0  0  0  0  0  0  0  0  0
    7.4570   -3.2190   22.2100 C   0  0  0  0  0  0  0  0  0  0  0  0
  1  2  1  0
  2  3  2  0
  2  4  1  0
  4  5  1  0
  5  6  1  0
  6  7  1  0
  7  8  1  0
  8  9  2  0
  8 10  1  0
 10 11  1  0
 11 12  1  0
 12 13  1  0
 13 14  1  6
 14 15  1  0
 15 16  2  0
 15 17  1  0
 17 18  1  0
 18 19  1  6
 19 20  1  0
 20 21  1  0
 21 22  2  0
 21 23  1  0
 24 23  1  0
 24 25  1  0
 24 26  1  0
 24 27  1  0
 20 28  1  0
 14 29  1  0
 18 29  1  0
 29 28  1  6
 10 30  1  0
 13 30  1  0
  7 31  1  0
  4 32  1  0
 31 32  1  0
M  END
