piperidine-amides-7112-covalent
     RDKit          3D

 22 23  0  0  0  0  0  0  0  0999 V2000
    7.0510   -3.2960   19.3420 C   0  0  0  0  0  0  0  0  0  0  0  0
    6.3610   -4.1320   20.3380 C   0  0  0  0  0  0  0  0  0  0  0  0
    5.3920   -4.8390   19.9820 O   0  0  0  0  0  0  0  0  0  0  0  0
    6.7950   -4.1800   21.6780 N   0  0  0  0  0  0  0  0  0  0  0  0
    7.6030   -3.0880   22.2020 C   0  0  0  0  0  0  0  0  0  0  0  0
    7.4170   -3.0500   23.7300 C   0  0  0  0  0  0  0  0  0  0  0  0
    6.0590   -3.6610   23.9920 C   0  0  0  0  0  0  0  0  0  0  0  0
    5.5530   -3.4190   25.3730 C   0  0  0  0  0  0  0  0  0  0  0  0
    4.3140   -3.4040   25.5200 O   0  0  0  0  0  0  0  0  0  0  0  0
    6.4190   -3.1990   26.4820 N   0  0  0  0  0  0  0  0  0  0  0  0
    6.2960   -3.9670   27.7150 C   0  0  2  0  0  0  0  0  0  0  0  0
    5.7660   -5.3540   27.4100 C   0  0  0  0  0  0  0  0  0  0  0  0
    5.5170   -3.2340   28.7270 C   0  0  0  0  0  0  0  0  0  0  0  0
    4.2360   -3.4490   29.2790 C   0  0  0  0  0  0  0  0  0  0  0  0
    3.5560   -2.6750   30.2830 C   0  0  0  0  0  0  0  0  0  0  0  0
    2.3110   -2.8760   30.8290 C   0  0  0  0  0  0  0  0  0  0  0  0
    4.3130   -1.4560   30.8330 C   0  0  0  0  0  0  0  0  0  0  0  0
    5.6340   -1.2840   30.2250 C   0  0  0  0  0  0  0  0  0  0  0  0
    6.8920   -0.4730   30.1680 C   0  0  0  0  0  0  0  0  0  0  0  0
    6.2450   -2.1400   29.1930 C   0  0  0  0  0  0  0  0  0  0  0  0
    6.1480   -5.1330   23.7170 C   0  0  0  0  0  0  0  0  0  0  0  0
    6.5430   -5.3700   22.4270 C   0  0  0  0  0  0  0  0  0  0  0  0
  1  2  1  0
  2  3  2  0
  2  4  1  0
  4  5  1  0
  5  6  1  0
  6  7  1  0
  7  8  1  0
  8  9  2  0
  8 10  1  0
 10 11  1  0
 11 12  1  6
 11 13  1  0
 13 14  2  0
 14 15  1  0
 15 16  1  0
 15 17  2  0
 17 18  1  0
 18 19  1  0
 13 20  1  0
 18 20  2  0
  7 21  1  0
  4 22  1  0
 21 22  1  0
M  END
