piperidine-amides-11999-covalent
     RDKit          3D

 26 28  0  0  0  0  0  0  0  0999 V2000
    7.0560   -3.3750   19.3700 C   0  0  0  0  0  0  0  0  0  0  0  0
    6.3400   -4.1790   20.3490 C   0  0  0  0  0  0  0  0  0  0  0  0
    5.3660   -4.8390   19.9860 O   0  0  0  0  0  0  0  0  0  0  0  0
    6.7960   -4.2490   21.7150 N   0  0  0  0  0  0  0  0  0  0  0  0
    7.6680   -3.2180   22.2500 C   0  0  0  0  0  0  0  0  0  0  0  0
    7.4400   -3.0440   23.7280 C   0  0  0  0  0  0  0  0  0  0  0  0
    6.0450   -3.5650   23.9860 C   0  0  0  0  0  0  0  0  0  0  0  0
    5.4950   -3.1950   25.3340 C   0  0  0  0  0  0  0  0  0  0  0  0
    4.2660   -3.1930   25.5330 O   0  0  0  0  0  0  0  0  0  0  0  0
    6.3400   -2.8440   26.4210 N   0  0  0  0  0  0  0  0  0  0  0  0
    6.6560   -1.4500   26.7050 C   0  0  2  0  0  0  0  0  0  0  0  0
    7.1440   -1.3720   28.1370 C   0  0  0  0  0  0  0  0  0  0  0  0
    6.5060   -0.5750   29.0640 C   0  0  0  0  0  0  0  0  0  0  0  0
    5.7280    0.3300   28.6650 O   0  0  0  0  0  0  0  0  0  0  0  0
    5.6030    0.5630   27.2910 C   0  0  0  0  0  0  0  0  0  0  0  0
    5.5170   -0.5270   26.4490 C   0  0  1  0  0  0  0  0  0  0  0  0
    5.3870   -0.3330   25.0850 O   0  0  0  0  0  0  0  0  0  0  0  0
    6.2690    0.4550   24.4040 C   0  0  0  0  0  0  0  0  0  0  0  0
    5.7290    0.7850   23.1690 C   0  0  0  0  0  0  0  0  0  0  0  0
    4.9510   -0.0470   22.3680 C   0  0  0  0  0  0  0  0  0  0  0  0
    4.4530    0.3790   21.1330 C   0  0  0  0  0  0  0  0  0  0  0  0
    4.7460    1.7190   20.6620 C   0  0  0  0  0  0  0  0  0  0  0  0
    5.5130    2.5530   21.4430 C   0  0  0  0  0  0  0  0  0  0  0  0
    5.9870    2.0740   22.6720 C   0  0  0  0  0  0  0  0  0  0  0  0
    6.0170   -5.0650   23.8240 C   0  0  0  0  0  0  0  0  0  0  0  0
    6.6350   -5.4680   22.4730 C   0  0  0  0  0  0  0  0  0  0  0  0
  1  2  1  0
  2  3  2  0
  2  4  1  0
  4  5  1  0
  5  6  1  0
  6  7  1  0
  7  8  1  0
  8  9  2  0
  8 10  1  0
 11 10  1  1
 11 12  1  0
 12 13  1  0
 13 14  1  0
 14 15  1  0
 11 16  1  0
 15 16  1  0
 16 17  1  6
 17 18  1  0
 18 19  1  0
 19 20  2  0
 20 21  1  0
 21 22  2  0
 22 23  1  0
 19 24  1  0
 23 24  2  0
  7 25  1  0
  4 26  1  0
 25 26  1  0
M  END
