piperidine-amides-33986-covalent
     RDKit          3D

 30 32  0  0  0  0  0  0  0  0999 V2000
    7.1490   -3.3460   19.2790 C   0  0  0  0  0  0  0  0  0  0  0  0
    6.4230   -4.1500   20.2600 C   0  0  0  0  0  0  0  0  0  0  0  0
    5.3500   -4.7120   19.9520 O   0  0  0  0  0  0  0  0  0  0  0  0
    6.9810   -4.3480   21.5240 N   0  0  0  0  0  0  0  0  0  0  0  0
    6.6570   -5.5470   22.2500 C   0  0  0  0  0  0  0  0  0  0  0  0
    5.7650   -5.0830   23.3950 C   0  0  0  0  0  0  0  0  0  0  0  0
    6.5340   -4.0050   24.1250 C   0  0  0  0  0  0  0  0  0  0  0  0
    5.7030   -3.4750   25.2010 C   0  0  0  0  0  0  0  0  0  0  0  0
    4.6910   -2.8150   24.8990 O   0  0  0  0  0  0  0  0  0  0  0  0
    6.0420   -3.7210   26.5300 N   0  0  0  0  0  0  0  0  0  0  0  0
    6.4440   -2.6330   27.3160 C   0  0  0  0  0  0  0  0  0  0  0  0
    6.4700   -3.2120   28.7140 C   0  0  1  0  0  0  0  0  0  0  0  0
    6.4230   -2.0240   29.5770 N   0  0  0  0  0  0  0  0  0  0  0  0
    7.5630   -1.1140   29.7050 C   0  0  0  0  0  0  0  0  0  0  0  0
    8.6440   -1.6750   29.4480 O   0  0  0  0  0  0  0  0  0  0  0  0
    7.6020    0.1620   30.0470 O   0  0  0  0  0  0  0  0  0  0  0  0
    8.4410    1.1520   30.3110 C   0  0  0  0  0  0  0  0  0  0  0  0
    8.0040    1.7940   31.4720 C   0  0  0  0  0  0  0  0  0  0  0  0
    8.4140    1.9660   29.2090 C   0  0  0  0  0  0  0  0  0  0  0  0
    9.7950    0.8490   30.3400 C   0  0  0  0  0  0  0  0  0  0  0  0
    5.1890   -4.1470   28.6610 C   0  0  2  0  0  0  0  0  0  0  0  0
    5.0920   -5.1950   29.7230 C   0  0  0  0  0  0  0  0  0  0  0  0
    6.1430   -6.0600   29.2990 C   0  0  0  0  0  0  0  0  0  0  0  0
    6.2130   -7.1300   30.1840 N   0  0  0  0  0  0  0  0  0  0  0  0
    5.2100   -6.8940   31.1280 N   0  0  0  0  0  0  0  0  0  0  0  0
    4.9790   -7.8020   32.2280 C   0  0  0  0  0  0  0  0  0  0  0  0
    4.4420   -5.7070   30.9240 C   0  0  0  0  0  0  0  0  0  0  0  0
    5.2660   -4.5390   27.3400 C   0  0  0  0  0  0  0  0  0  0  0  0
    6.9240   -2.8150   23.2850 C   0  0  0  0  0  0  0  0  0  0  0  0
    7.7760   -3.3140   22.1340 C   0  0  0  0  0  0  0  0  0  0  0  0
  1  2  1  0
  2  3  2  0
  2  4  1  0
  4  5  1  0
  5  6  1  0
  6  7  1  0
  7  8  1  0
  8  9  2  0
  8 10  1  0
 10 11  1  0
 11 12  1  0
 12 13  1  1
 13 14  1  0
 14 15  2  0
 14 16  1  0
 17 16  1  0
 17 18  1  0
 17 19  1  0
 17 20  1  0
 12 21  1  0
 21 22  1  1
 22 23  1  0
 23 24  2  0
 24 25  1  0
 25 26  1  0
 22 27  2  0
 25 27  1  0
 10 28  1  0
 21 28  1  0
  7 29  1  0
  4 30  1  0
 29 30  1  0
M  END
