piperidine-amides-1827-covalent
     RDKit          3D

 19 20  0  0  0  0  0  0  0  0999 V2000
    7.0810   -3.2730   19.2750 C   0  0  0  0  0  0  0  0  0  0  0  0
    6.3530   -4.0690   20.2990 C   0  0  0  0  0  0  0  0  0  0  0  0
    5.3320   -4.6460   19.9260 O   0  0  0  0  0  0  0  0  0  0  0  0
    6.8550   -4.1770   21.6030 N   0  0  0  0  0  0  0  0  0  0  0  0
    7.7190   -3.1670   22.1910 C   0  0  0  0  0  0  0  0  0  0  0  0
    7.3860   -2.9460   23.6440 C   0  0  0  0  0  0  0  0  0  0  0  0
    6.0590   -3.6260   23.9570 C   0  0  0  0  0  0  0  0  0  0  0  0
    5.6040   -3.2430   25.3100 C   0  0  0  0  0  0  0  0  0  0  0  0
    4.3870   -3.1500   25.5040 O   0  0  0  0  0  0  0  0  0  0  0  0
    6.4870   -2.9850   26.3810 N   0  0  0  0  0  0  0  0  0  0  0  0
    6.1280   -3.5150   27.6830 C   0  0  0  0  0  0  0  0  0  0  0  0
    6.0160   -2.3630   28.6670 C   0  0  1  0  0  0  0  0  0  0  0  0
    7.0000   -1.4050   28.7670 C   0  0  0  0  0  0  0  0  0  0  0  0
    6.5740   -0.5330   29.6300 C   0  0  0  0  0  0  0  0  0  0  0  0
    5.3000   -0.9050   29.6960 C   0  0  0  0  0  0  0  0  0  0  0  0
    4.6350   -1.6660   28.5430 C   0  0  2  0  0  0  0  0  0  0  0  0
    3.5790   -2.5090   28.7890 O   0  0  0  0  0  0  0  0  0  0  0  0
    6.1300   -5.1000   23.7250 C   0  0  0  0  0  0  0  0  0  0  0  0
    6.6240   -5.4030   22.3430 C   0  0  0  0  0  0  0  0  0  0  0  0
  1  2  1  0
  2  3  2  0
  2  4  1  0
  4  5  1  0
  5  6  1  0
  6  7  1  0
  7  8  1  0
  8  9  2  0
  8 10  1  0
 10 11  1  0
 12 11  1  6
 12 13  1  0
 13 14  1  0
 14 15  1  0
 12 16  1  0
 15 16  1  0
 16 17  1  1
  7 18  1  0
  4 19  1  0
 18 19  1  0
M  END
