piperidine-amides-1793-covalent
     RDKit          3D

 19 19  0  0  0  0  0  0  0  0999 V2000
    7.1210   -3.2650   19.2350 C   0  0  0  0  0  0  0  0  0  0  0  0
    6.3660   -4.0500   20.2450 C   0  0  0  0  0  0  0  0  0  0  0  0
    5.3090   -4.5580   19.8900 O   0  0  0  0  0  0  0  0  0  0  0  0
    6.8900   -4.2280   21.5270 N   0  0  0  0  0  0  0  0  0  0  0  0
    7.6660   -3.1900   22.1460 C   0  0  0  0  0  0  0  0  0  0  0  0
    6.8770   -2.6190   23.2900 C   0  0  0  0  0  0  0  0  0  0  0  0
    6.3450   -3.7500   24.1780 C   0  0  0  0  0  0  0  0  0  0  0  0
    5.6180   -3.1150   25.3010 C   0  0  0  0  0  0  0  0  0  0  0  0
    4.3920   -3.2600   25.3920 O   0  0  0  0  0  0  0  0  0  0  0  0
    6.2970   -2.3450   26.2700 N   0  0  0  0  0  0  0  0  0  0  0  0
    6.5500   -2.9310   27.5670 C   0  0  0  0  0  0  0  0  0  0  0  0
    7.6890   -3.8650   27.3350 C   0  0  0  0  0  0  0  0  0  0  0  0
    8.2650   -3.9500   26.1090 C   0  0  0  0  0  0  0  0  0  0  0  0
    9.1260   -4.8260   25.9510 O   0  0  0  0  0  0  0  0  0  0  0  0
    8.8600   -5.8810   26.7890 C   0  0  0  0  0  0  0  0  0  0  0  0
    9.8030   -6.8120   26.4880 F   0  0  0  0  0  0  0  0  0  0  0  0
    9.0700   -5.5360   28.1290 F   0  0  0  0  0  0  0  0  0  0  0  0
    5.4700   -4.7040   23.3420 C   0  0  0  0  0  0  0  0  0  0  0  0
    6.3540   -5.3300   22.2850 C   0  0  0  0  0  0  0  0  0  0  0  0
  1  2  1  0
  2  3  2  0
  2  4  1  0
  4  5  1  0
  5  6  1  0
  6  7  1  0
  7  8  1  0
  8  9  2  0
  8 10  1  0
 10 11  1  0
 11 12  1  0
 12 13  1  0
 13 14  1  0
 14 15  1  0
 15 16  1  0
 15 17  1  0
  7 18  1  0
  4 19  1  0
 18 19  1  0
M  END
