piperidine-amides-4347-covalent
     RDKit          3D

 26 28  0  0  0  0  0  0  0  0999 V2000
    7.0650   -3.3310   19.2660 C   0  0  0  0  0  0  0  0  0  0  0  0
    6.3770   -4.1400   20.2870 C   0  0  0  0  0  0  0  0  0  0  0  0
    5.3160   -4.7050   19.9370 O   0  0  0  0  0  0  0  0  0  0  0  0
    6.9130   -4.3240   21.5850 N   0  0  0  0  0  0  0  0  0  0  0  0
    7.6280   -3.2370   22.1650 C   0  0  0  0  0  0  0  0  0  0  0  0
    7.4320   -3.0570   23.6000 C   0  0  0  0  0  0  0  0  0  0  0  0
    6.4910   -3.9980   24.2360 C   0  0  0  0  0  0  0  0  0  0  0  0
    5.7510   -3.3090   25.3500 C   0  0  0  0  0  0  0  0  0  0  0  0
    4.5380   -3.0610   25.2200 O   0  0  0  0  0  0  0  0  0  0  0  0
    6.4020   -2.9440   26.5430 N   0  0  0  0  0  0  0  0  0  0  0  0
    6.4190   -1.6900   27.2130 C   0  0  0  0  0  0  0  0  0  0  0  0
    6.9920   -1.5700   28.5400 C   0  0  0  0  0  0  0  0  0  0  0  0
    6.9750   -0.2330   29.1920 C   0  0  0  0  0  0  0  0  0  0  0  0
    6.4130    0.7300   28.4520 C   0  0  0  0  0  0  0  0  0  0  0  0
    6.3470    2.0130   28.9660 O   0  0  0  0  0  0  0  0  0  0  0  0
    6.3950    2.9880   27.9810 C   0  0  0  0  0  0  0  0  0  0  0  0
    5.0640    3.2470   27.3420 C   0  0  0  0  0  0  0  0  0  0  0  0
    5.2980    4.3400   26.2770 C   0  0  0  0  0  0  0  0  0  0  0  0
    6.5530    5.0790   25.8620 C   0  0  0  0  0  0  0  0  0  0  0  0
    7.8300    4.7250   26.5860 C   0  0  0  0  0  0  0  0  0  0  0  0
    9.4980    5.5660   26.1810 Br  0  0  0  0  0  0  0  0  0  0  0  0
    7.7110    3.6540   27.6630 C   0  0  0  0  0  0  0  0  0  0  0  0
    5.8920    0.4760   27.1650 N   0  0  0  0  0  0  0  0  0  0  0  0
    5.7690   -0.6100   26.3280 C   0  0  0  0  0  0  0  0  0  0  0  0
    5.5660   -4.6850   23.2870 C   0  0  0  0  0  0  0  0  0  0  0  0
    6.3980   -5.3660   22.4220 C   0  0  0  0  0  0  0  0  0  0  0  0
  1  2  1  0
  2  3  2  0
  2  4  1  0
  4  5  1  0
  5  6  1  0
  6  7  1  0
  7  8  1  0
  8  9  2  0
  8 10  1  0
 10 11  1  0
 11 12  2  0
 12 13  1  0
 13 14  2  0
 14 15  1  0
 15 16  1  0
 16 17  2  0
 17 18  1  0
 18 19  2  0
 19 20  1  0
 20 21  1  0
 16 22  1  0
 20 22  2  0
 14 23  1  0
 11 24  1  0
 23 24  2  0
  7 25  1  0
  4 26  1  0
 25 26  1  0
M  END
