piperidine-amides-27267-covalent
     RDKit          3D

 26 28  0  0  0  0  0  0  0  0999 V2000
    7.0530   -3.3910   19.3600 C   0  0  0  0  0  0  0  0  0  0  0  0
    6.3310   -4.2580   20.3010 C   0  0  0  0  0  0  0  0  0  0  0  0
    5.2280   -4.7020   19.9130 O   0  0  0  0  0  0  0  0  0  0  0  0
    6.8870   -4.6050   21.5250 N   0  0  0  0  0  0  0  0  0  0  0  0
    6.4220   -5.7640   22.2560 C   0  0  0  0  0  0  0  0  0  0  0  0
    5.6910   -5.3150   23.5030 C   0  0  0  0  0  0  0  0  0  0  0  0
    6.4220   -4.2180   24.2380 C   0  0  0  0  0  0  0  0  0  0  0  0
    5.6450   -3.6970   25.3850 C   0  0  0  0  0  0  0  0  0  0  0  0
    4.4230   -3.4740   25.2250 O   0  0  0  0  0  0  0  0  0  0  0  0
    6.2030   -3.4310   26.6540 N   0  0  0  0  0  0  0  0  0  0  0  0
    5.3440   -3.3990   27.8030 C   0  0  0  0  0  0  0  0  0  0  0  0
    5.8600   -4.4320   28.7900 C   0  0  0  0  0  0  0  0  0  0  0  0
    6.9340   -5.2410   28.4990 C   0  0  0  0  0  0  0  0  0  0  0  0
    7.8180   -4.9200   27.4860 C   0  0  0  0  0  0  0  0  0  0  0  0
    7.5910   -3.7040   26.8420 C   0  0  1  0  0  0  0  0  0  0  0  0
    8.3640   -3.3790   25.7360 C   0  0  2  0  0  0  0  0  0  0  0  0
    8.8680   -2.1200   25.7250 C   0  0  0  0  0  0  0  0  0  0  0  0
    8.9730   -1.6480   24.4840 N   0  0  0  0  0  0  0  0  0  0  0  0
    8.1040   -2.2880   24.6570 C   0  0  0  0  0  0  0  0  0  0  0  0
    8.9680   -2.2280   23.3760 C   0  0  0  0  0  0  0  0  0  0  0  0
    8.7360   -1.1810   22.3280 C   0  0  0  0  0  0  0  0  0  0  0  0
    7.6450   -0.1610   22.5160 C   0  0  0  0  0  0  0  0  0  0  0  0
    6.8490   -0.1870   23.6550 C   0  0  0  0  0  0  0  0  0  0  0  0
    7.1030   -1.2750   24.7230 C   0  0  0  0  0  0  0  0  0  0  0  0
    6.6520   -3.1020   23.2810 C   0  0  0  0  0  0  0  0  0  0  0  0
    7.6240   -3.5980   22.2360 C   0  0  0  0  0  0  0  0  0  0  0  0
  1  2  1  0
  2  3  2  0
  2  4  1  0
  4  5  1  0
  5  6  1  0
  6  7  1  0
  7  8  1  0
  8  9  2  0
  8 10  1  0
 10 11  1  0
 11 12  1  0
 12 13  1  0
 13 14  1  0
 10 15  1  0
 15 14  1  6
 15 16  1  0
 16 17  1  1
 17 18  3  0
 16 19  1  0
 19 20  2  0
 20 21  1  0
 21 22  2  0
 22 23  1  0
 19 24  1  0
 23 24  2  0
  7 25  1  0
  4 26  1  0
 25 26  1  0
M  END
