piperidine-amides-1315-covalent
     RDKit          3D

 22 23  0  0  0  0  0  0  0  0999 V2000
    7.0720   -3.3310   19.3090 C   0  0  0  0  0  0  0  0  0  0  0  0
    6.3830   -4.1730   20.3220 C   0  0  0  0  0  0  0  0  0  0  0  0
    5.3800   -4.8260   19.9780 O   0  0  0  0  0  0  0  0  0  0  0  0
    6.9150   -4.2430   21.6300 N   0  0  0  0  0  0  0  0  0  0  0  0
    7.7110   -3.1790   22.1930 C   0  0  0  0  0  0  0  0  0  0  0  0
    6.8700   -2.5620   23.3070 C   0  0  0  0  0  0  0  0  0  0  0  0
    6.5040   -3.6780   24.2200 C   0  0  0  0  0  0  0  0  0  0  0  0
    5.6480   -3.2380   25.3500 C   0  0  0  0  0  0  0  0  0  0  0  0
    4.4350   -3.2610   25.1240 O   0  0  0  0  0  0  0  0  0  0  0  0
    6.1760   -2.8490   26.6020 N   0  0  0  0  0  0  0  0  0  0  0  0
    6.6760   -1.5720   27.0320 C   0  0  2  0  0  0  0  0  0  0  0  0
    7.2130   -1.4280   28.3080 C   0  0  0  0  0  0  0  0  0  0  0  0
    6.7110   -0.5050   29.1960 C   0  0  0  0  0  0  0  0  0  0  0  0
    5.9650    0.4340   28.5850 C   0  0  0  0  0  0  0  0  0  0  0  0
    5.1830    0.3030   27.5440 O   0  0  0  0  0  0  0  0  0  0  0  0
    5.6670   -0.5180   26.6190 C   0  0  2  0  0  0  0  0  0  0  0  0
    4.4230   -1.0210   25.8750 C   0  0  0  0  0  0  0  0  0  0  0  0
    3.3990    0.1100   25.9200 C   0  0  0  0  0  0  0  0  0  0  0  0
    2.8440    0.4150   27.1470 C   0  0  0  0  0  0  0  0  0  0  0  0
    4.1470    1.3090   25.4680 C   0  0  0  0  0  0  0  0  0  0  0  0
    5.8400   -4.8680   23.5760 C   0  0  0  0  0  0  0  0  0  0  0  0
    6.5890   -5.3170   22.5150 C   0  0  0  0  0  0  0  0  0  0  0  0
  1  2  1  0
  2  3  2  0
  2  4  1  0
  4  5  1  0
  5  6  1  0
  6  7  1  0
  7  8  1  0
  8  9  2  0
  8 10  1  0
 11 10  1  1
 11 12  1  0
 12 13  1  0
 13 14  1  0
 14 15  1  0
 11 16  1  0
 15 16  1  0
 16 17  1  1
 17 18  1  0
 18 19  1  0
 18 20  1  0
  7 21  1  0
  4 22  1  0
 21 22  1  0
M  END
