piperidine-amides-6904-covalent
     RDKit          3D

 22 23  0  0  0  0  0  0  0  0999 V2000
    7.0910   -3.2810   19.2280 C   0  0  0  0  0  0  0  0  0  0  0  0
    6.3740   -4.0670   20.2440 C   0  0  0  0  0  0  0  0  0  0  0  0
    5.3340   -4.6870   19.9390 O   0  0  0  0  0  0  0  0  0  0  0  0
    6.8680   -4.1620   21.5480 N   0  0  0  0  0  0  0  0  0  0  0  0
    7.6460   -3.0650   22.0980 C   0  0  0  0  0  0  0  0  0  0  0  0
    7.3790   -2.9810   23.6080 C   0  0  0  0  0  0  0  0  0  0  0  0
    5.9350   -3.3740   23.8320 C   0  0  0  0  0  0  0  0  0  0  0  0
    5.5710   -3.1990   25.2630 C   0  0  0  0  0  0  0  0  0  0  0  0
    4.3700   -2.9990   25.5350 O   0  0  0  0  0  0  0  0  0  0  0  0
    6.5700   -3.2470   26.2740 N   0  0  0  0  0  0  0  0  0  0  0  0
    6.2170   -3.3590   27.6720 C   0  0  0  0  0  0  0  0  0  0  0  0
    5.0670   -4.3550   27.8650 C   0  0  0  0  0  0  0  0  0  0  0  0
    5.5150   -5.6310   27.4110 N   0  0  0  0  0  0  0  0  0  0  0  0
    6.8580   -5.6230   26.9870 C   0  0  0  0  0  0  0  0  0  0  0  0
    7.0580   -5.4750   25.7110 C   0  0  0  0  0  0  0  0  0  0  0  0
    8.2970   -5.4320   25.2400 C   0  0  0  0  0  0  0  0  0  0  0  0
    9.3320   -5.5510   26.1330 C   0  0  0  0  0  0  0  0  0  0  0  0
   10.6040   -5.5170   25.7300 O   0  0  0  0  0  0  0  0  0  0  0  0
    9.3450   -5.7350   27.6740 C   0  0  0  0  0  0  0  0  0  0  0  0
    7.8450   -5.7410   27.8730 C   0  0  0  0  0  0  0  0  0  0  0  0
    5.5770   -4.7450   23.4010 C   0  0  0  0  0  0  0  0  0  0  0  0
    6.4850   -5.2500   22.3740 C   0  0  0  0  0  0  0  0  0  0  0  0
  1  2  1  0
  2  3  2  0
  2  4  1  0
  4  5  1  0
  5  6  1  0
  6  7  1  0
  7  8  1  0
  8  9  2  0
  8 10  1  0
 10 11  1  0
 11 12  1  0
 12 13  1  0
 13 14  1  0
 14 15  2  0
 15 16  1  0
 16 17  2  0
 17 18  1  0
 17 19  1  0
 14 20  1  0
 19 20  2  0
  7 21  1  0
  4 22  1  0
 21 22  1  0
M  END
