piperidine-amides-24128-covalent
     RDKit          3D

 22 23  0  0  0  0  0  0  0  0999 V2000
    7.1030   -3.3640   19.3540 C   0  0  0  0  0  0  0  0  0  0  0  0
    6.4460   -4.2340   20.3380 C   0  0  0  0  0  0  0  0  0  0  0  0
    5.3800   -4.7950   19.9760 O   0  0  0  0  0  0  0  0  0  0  0  0
    7.0410   -4.4710   21.6040 N   0  0  0  0  0  0  0  0  0  0  0  0
    6.6130   -5.5680   22.3800 C   0  0  0  0  0  0  0  0  0  0  0  0
    6.3780   -5.1710   23.7590 C   0  0  0  0  0  0  0  0  0  0  0  0
    5.9270   -3.7680   23.9100 C   0  0  0  0  0  0  0  0  0  0  0  0
    5.5970   -3.3540   25.3120 C   0  0  0  0  0  0  0  0  0  0  0  0
    4.6340   -2.5870   25.4750 O   0  0  0  0  0  0  0  0  0  0  0  0
    6.2910   -3.7940   26.4500 N   0  0  0  0  0  0  0  0  0  0  0  0
    6.8710   -5.0590   26.6090 C   0  0  0  0  0  0  0  0  0  0  0  0
    6.8060   -5.4920   27.9770 C   0  0  1  0  0  0  0  0  0  0  0  0
    8.1040   -5.6230   28.4800 F   0  0  0  0  0  0  0  0  0  0  0  0
    6.0750   -4.3170   28.6680 C   0  0  0  0  0  0  0  0  0  0  0  0
    5.7810   -3.3350   27.7210 C   0  0  1  0  0  0  0  0  0  0  0  0
    6.6720   -2.3290   28.4610 C   0  0  0  0  0  0  0  0  0  0  0  0
    5.4580   -1.4390   29.2730 S   0  0  0  0  0  0  0  0  0  0  0  0
    6.4160   -0.6370   30.4070 C   0  0  0  0  0  0  0  0  0  0  0  0
    4.4250   -2.3350   29.8980 O   0  0  0  0  0  0  0  0  0  0  0  0
    4.8290   -0.4630   28.3430 O   0  0  0  0  0  0  0  0  0  0  0  0
    6.8620   -2.7480   23.2470 C   0  0  0  0  0  0  0  0  0  0  0  0
    7.8040   -3.4770   22.3240 C   0  0  0  0  0  0  0  0  0  0  0  0
  1  2  1  0
  2  3  2  0
  2  4  1  0
  4  5  1  0
  5  6  1  0
  6  7  1  0
  7  8  1  0
  8  9  2  0
  8 10  1  0
 10 11  1  0
 11 12  1  0
 12 13  1  1
 12 14  1  0
 10 15  1  0
 14 15  1  0
 15 16  1  1
 17 16  1  0
 17 18  1  0
 17 19  2  0
 17 20  2  0
  7 21  1  0
  4 22  1  0
 21 22  1  0
M  END
