piperidine-amides-27158-covalent
     RDKit          3D

 25 26  0  0  0  0  0  0  0  0999 V2000
    7.0130   -3.3870   19.4280 C   0  0  0  0  0  0  0  0  0  0  0  0
    6.3940   -4.2820   20.4150 C   0  0  0  0  0  0  0  0  0  0  0  0
    5.4010   -4.9390   20.0030 O   0  0  0  0  0  0  0  0  0  0  0  0
    6.9140   -4.4160   21.7200 N   0  0  0  0  0  0  0  0  0  0  0  0
    6.6630   -5.6130   22.5120 C   0  0  0  0  0  0  0  0  0  0  0  0
    6.1120   -5.2220   23.8730 C   0  0  0  0  0  0  0  0  0  0  0  0
    5.9820   -3.7330   23.9880 C   0  0  0  0  0  0  0  0  0  0  0  0
    5.3190   -3.2430   25.2400 C   0  0  0  0  0  0  0  0  0  0  0  0
    4.6320   -2.2190   25.1050 O   0  0  0  0  0  0  0  0  0  0  0  0
    5.3470   -3.7770   26.5520 N   0  0  0  0  0  0  0  0  0  0  0  0
    6.3990   -3.4060   27.3960 C   0  0  0  0  0  0  0  0  0  0  0  0
    6.6870   -4.5950   28.2990 C   0  0  0  0  0  0  0  0  0  0  0  0
    5.8140   -4.9410   29.2190 C   0  0  2  0  0  0  0  0  0  0  0  0
    5.9770   -6.1540   29.8510 C   0  0  0  0  0  0  0  0  0  0  0  0
    6.1510   -7.1100   28.9790 O   0  0  0  0  0  0  0  0  0  0  0  0
    5.9760   -6.4110   31.2130 O   0  0  0  0  0  0  0  0  0  0  0  0
    4.9230   -7.0940   31.8290 C   0  0  0  0  0  0  0  0  0  0  0  0
    4.2490   -7.6380   30.7470 C   0  0  0  0  0  0  0  0  0  0  0  0
    4.0570   -6.3190   32.5600 C   0  0  0  0  0  0  0  0  0  0  0  0
    5.5250   -8.0250   32.6400 C   0  0  0  0  0  0  0  0  0  0  0  0
    4.5560   -4.6690   28.8160 C   0  0  1  0  0  0  0  0  0  0  0  0
    3.5600   -4.1230   29.8150 C   0  0  0  0  0  0  0  0  0  0  0  0
    4.5770   -3.4780   27.7580 C   0  0  0  0  0  0  0  0  0  0  0  0
    7.2610   -3.0340   23.7180 C   0  0  0  0  0  0  0  0  0  0  0  0
    7.6880   -3.3420   22.2980 C   0  0  0  0  0  0  0  0  0  0  0  0
  1  2  1  0
  2  3  2  0
  2  4  1  0
  4  5  1  0
  5  6  1  0
  6  7  1  0
  7  8  1  0
  8  9  2  0
  8 10  1  0
 10 11  1  0
 11 12  1  0
 12 13  1  0
 13 14  1  6
 14 15  2  0
 14 16  1  0
 17 16  1  0
 17 18  1  0
 17 19  1  0
 17 20  1  0
 13 21  1  0
 21 22  1  1
 10 23  1  0
 21 23  1  0
  7 24  1  0
  4 25  1  0
 24 25  1  0
M  END
