piperidine-amides-14902-covalent
     RDKit          3D

 22 24  0  0  0  0  0  0  0  0999 V2000
    7.0380   -3.3520   19.3670 C   0  0  0  0  0  0  0  0  0  0  0  0
    6.4080   -4.2240   20.3580 C   0  0  0  0  0  0  0  0  0  0  0  0
    5.4110   -4.8750   19.9920 O   0  0  0  0  0  0  0  0  0  0  0  0
    6.9490   -4.3540   21.6690 N   0  0  0  0  0  0  0  0  0  0  0  0
    7.7060   -3.2730   22.2610 C   0  0  0  0  0  0  0  0  0  0  0  0
    6.8320   -2.5330   23.2260 C   0  0  0  0  0  0  0  0  0  0  0  0
    5.9650   -3.5780   23.8720 C   0  0  0  0  0  0  0  0  0  0  0  0
    5.6690   -3.2370   25.3030 C   0  0  0  0  0  0  0  0  0  0  0  0
    4.6040   -3.6760   25.7300 O   0  0  0  0  0  0  0  0  0  0  0  0
    6.5530   -2.4520   26.0530 N   0  0  0  0  0  0  0  0  0  0  0  0
    6.0940   -1.8110   27.2450 C   0  0  1  0  0  0  0  0  0  0  0  0
    6.9460   -1.8370   28.3150 C   0  0  0  0  0  0  0  0  0  0  0  0
    6.5820   -1.0170   29.0820 O   0  0  0  0  0  0  0  0  0  0  0  0
    6.2490    0.0610   28.3550 C   0  0  0  0  0  0  0  0  0  0  0  0
    6.3500    1.4050   29.1260 C   0  0  0  0  0  0  0  0  0  0  0  0
    6.5640    0.0840   29.4270 C   0  0  0  0  0  0  0  0  0  0  0  0
    6.4360   -1.0270   28.6730 F   0  0  0  0  0  0  0  0  0  0  0  0
    6.1430    1.1920   28.3610 C   0  0  0  0  0  0  0  0  0  0  0  0
    5.7630    1.0340   27.0280 C   0  0  0  0  0  0  0  0  0  0  0  0
    5.8520   -0.3060   26.9020 C   0  0  0  0  0  0  0  0  0  0  0  0
    6.4380   -4.9750   23.8050 C   0  0  0  0  0  0  0  0  0  0  0  0
    6.6230   -5.4670   22.5300 C   0  0  0  0  0  0  0  0  0  0  0  0
  1  2  1  0
  2  3  2  0
  2  4  1  0
  4  5  1  0
  5  6  1  0
  6  7  1  0
  7  8  1  0
  8  9  2  0
  8 10  1  0
 11 10  1  6
 11 12  1  0
 12 13  1  0
 13 14  1  0
 14 15  1  0
 15 16  2  0
 16 17  1  0
 16 18  1  0
 18 19  2  0
 11 20  1  0
 14 20  2  0
 19 20  1  0
  7 21  1  0
  4 22  1  0
 21 22  1  0
M  END
