piperidine-amides-34938-covalent
     RDKit          3D

 33 37  0  0  0  0  0  0  0  0999 V2000
    7.0350   -3.3730   19.3990 C   0  0  0  0  0  0  0  0  0  0  0  0
    6.3960   -4.2790   20.3840 C   0  0  0  0  0  0  0  0  0  0  0  0
    5.3960   -4.8870   19.9960 O   0  0  0  0  0  0  0  0  0  0  0  0
    6.9480   -4.4600   21.6650 N   0  0  0  0  0  0  0  0  0  0  0  0
    6.5670   -5.5520   22.5020 C   0  0  0  0  0  0  0  0  0  0  0  0
    5.6670   -5.0280   23.5910 C   0  0  0  0  0  0  0  0  0  0  0  0
    6.2770   -3.8270   24.3440 C   0  0  0  0  0  0  0  0  0  0  0  0
    5.1850   -3.2920   25.2130 C   0  0  0  0  0  0  0  0  0  0  0  0
    4.1520   -2.8960   24.6770 O   0  0  0  0  0  0  0  0  0  0  0  0
    5.2820   -3.2260   26.6220 N   0  0  0  0  0  0  0  0  0  0  0  0
    4.2150   -2.6120   27.4270 C   0  0  0  0  0  0  0  0  0  0  0  0
    4.2140   -3.2390   28.8250 C   0  0  0  0  0  0  0  0  0  0  0  0
    5.0590   -4.2370   28.9970 C   0  0  0  0  0  0  0  0  0  0  0  0
    6.1640   -4.4220   28.4010 C   0  0  0  0  0  0  0  0  0  0  0  0
    6.7450   -5.6720   28.8790 N   0  0  0  0  0  0  0  0  0  0  0  0
    5.7890   -6.1890   29.8760 C   0  0  0  0  0  0  0  0  0  0  0  0
    5.9040   -7.4740   30.6900 C   0  0  0  0  0  0  0  0  0  0  0  0
    4.7530   -7.7160   31.6520 C   0  0  0  0  0  0  0  0  0  0  0  0
    3.6260   -6.7230   31.7150 C   0  0  0  0  0  0  0  0  0  0  0  0
    2.5710   -7.1020   32.7010 C   0  0  0  0  0  0  0  0  0  0  0  0
    3.5070   -5.4700   30.9070 C   0  0  0  0  0  0  0  0  0  0  0  0
    4.6590   -5.2440   29.9750 C   0  0  0  0  0  0  0  0  0  0  0  0
    6.3840   -3.2660   27.4540 C   0  0  2  0  0  0  0  0  0  0  0  0
    6.4530   -1.8800   28.0450 C   0  0  0  0  0  0  0  0  0  0  0  0
    6.4500   -1.8210   29.4210 C   0  0  0  0  0  0  0  0  0  0  0  0
    6.5080   -0.5120   30.1590 C   0  0  0  0  0  0  0  0  0  0  0  0
    6.5720    0.8300   29.4510 C   0  0  0  0  0  0  0  0  0  0  0  0
    6.6190    1.9240   30.0820 O   0  0  0  0  0  0  0  0  0  0  0  0
    6.6690    3.0470   30.7210 C   0  0  0  0  0  0  0  0  0  0  0  0
    6.5690    0.6710   28.0730 C   0  0  0  0  0  0  0  0  0  0  0  0
    6.5110   -0.7030   27.3840 C   0  0  0  0  0  0  0  0  0  0  0  0
    6.7180   -2.7540   23.3630 C   0  0  0  0  0  0  0  0  0  0  0  0
    7.6470   -3.3750   22.3290 C   0  0  0  0  0  0  0  0  0  0  0  0
  1  2  1  0
  2  3  2  0
  2  4  1  0
  4  5  1  0
  5  6  1  0
  6  7  1  0
  7  8  1  0
  8  9  2  0
  8 10  1  0
 10 11  1  0
 11 12  1  0
 12 13  1  0
 13 14  2  0
 14 15  1  0
 15 16  1  0
 16 17  1  0
 17 18  2  0
 18 19  1  0
 19 20  1  0
 19 21  2  0
 13 22  1  0
 16 22  2  0
 21 22  1  0
 10 23  1  0
 14 23  1  0
 23 24  1  1
 24 25  2  0
 25 26  1  0
 26 27  2  0
 27 28  1  0
 28 29  1  0
 27 30  1  0
 24 31  1  0
 30 31  2  0
  7 32  1  0
  4 33  1  0
 32 33  1  0
M  END
