piperidine-amides-33553-covalent
     RDKit          3D

 30 33  0  0  0  0  0  0  0  0999 V2000
    7.0890   -3.3890   19.3940 C   0  0  0  0  0  0  0  0  0  0  0  0
    6.4080   -4.2340   20.3810 C   0  0  0  0  0  0  0  0  0  0  0  0
    5.3670   -4.8130   19.9820 O   0  0  0  0  0  0  0  0  0  0  0  0
    6.9360   -4.4400   21.6860 N   0  0  0  0  0  0  0  0  0  0  0  0
    6.3650   -5.4830   22.4450 C   0  0  0  0  0  0  0  0  0  0  0  0
    5.6180   -5.0210   23.6200 C   0  0  0  0  0  0  0  0  0  0  0  0
    6.1670   -3.8590   24.3820 C   0  0  0  0  0  0  0  0  0  0  0  0
    5.1740   -3.3470   25.4080 C   0  0  0  0  0  0  0  0  0  0  0  0
    4.1040   -2.8790   24.9990 O   0  0  0  0  0  0  0  0  0  0  0  0
    5.3980   -3.3740   26.8160 N   0  0  0  0  0  0  0  0  0  0  0  0
    6.5910   -3.4690   27.4430 C   0  0  0  0  0  0  0  0  0  0  0  0
    6.8810   -4.6770   28.2160 C   0  0  0  0  0  0  0  0  0  0  0  0
    5.6600   -5.0960   29.0300 C   0  0  0  0  0  0  0  0  0  0  0  0
    5.7490   -6.4760   29.1860 C   0  0  0  0  0  0  0  0  0  0  0  0
    4.8820   -6.4730   30.4640 C   0  0  0  0  0  0  0  0  0  0  0  0
    4.8720   -7.6150   31.2970 N   0  0  0  0  0  0  0  0  0  0  0  0
    3.9350   -7.0240   32.2500 C   0  0  0  0  0  0  0  0  0  0  0  0
    3.7340   -8.0930   33.3310 C   0  0  0  0  0  0  0  0  0  0  0  0
    2.5210   -8.3160   34.2020 C   0  0  0  0  0  0  0  0  0  0  0  0
    2.6260   -9.4580   35.1910 C   0  0  0  0  0  0  0  0  0  0  0  0
    3.8850  -10.3180   35.2920 C   0  0  0  0  0  0  0  0  0  0  0  0
    4.9880   -9.9600   34.3570 C   0  0  0  0  0  0  0  0  0  0  0  0
    6.1870  -10.6720   34.3550 C   0  0  0  0  0  0  0  0  0  0  0  0
    4.8470   -8.8770   33.4330 N   0  0  0  0  0  0  0  0  0  0  0  0
    3.5040   -5.7790   31.9850 N   0  0  0  0  0  0  0  0  0  0  0  0
    4.0990   -5.3940   30.8390 O   0  0  0  0  0  0  0  0  0  0  0  0
    4.4300   -4.7880   28.4810 C   0  0  0  0  0  0  0  0  0  0  0  0
    4.3550   -3.4430   27.7780 C   0  0  0  0  0  0  0  0  0  0  0  0
    6.7150   -2.7780   23.4800 C   0  0  0  0  0  0  0  0  0  0  0  0
    7.5760   -3.3550   22.3630 C   0  0  0  0  0  0  0  0  0  0  0  0
  1  2  1  0
  2  3  2  0
  2  4  1  0
  4  5  1  0
  5  6  1  0
  6  7  1  0
  7  8  1  0
  8  9  2  0
  8 10  1  0
 10 11  1  0
 11 12  1  0
 12 13  1  0
 13 14  1  0
 14 15  1  0
 15 16  2  0
 16 17  1  0
 17 18  1  0
 18 19  2  0
 19 20  1  0
 20 21  2  0
 21 22  1  0
 22 23  1  0
 18 24  1  0
 22 24  2  0
 17 25  2  0
 15 26  1  0
 25 26  1  0
 13 27  1  0
 10 28  1  0
 27 28  1  0
  7 29  1  0
  4 30  1  0
 29 30  1  0
M  END
