piperidine-amides-31254-covalent
     RDKit          3D

 26 27  0  0  0  0  0  0  0  0999 V2000
    7.0690   -3.3430   19.3110 C   0  0  0  0  0  0  0  0  0  0  0  0
    6.3760   -4.1560   20.3100 C   0  0  0  0  0  0  0  0  0  0  0  0
    5.3660   -4.7950   19.9700 O   0  0  0  0  0  0  0  0  0  0  0  0
    6.8610   -4.2650   21.6230 N   0  0  0  0  0  0  0  0  0  0  0  0
    7.7970   -3.3070   22.1790 C   0  0  0  0  0  0  0  0  0  0  0  0
    7.1280   -2.7510   23.3930 C   0  0  0  0  0  0  0  0  0  0  0  0
    6.6840   -3.8320   24.3280 C   0  0  0  0  0  0  0  0  0  0  0  0
    5.9130   -3.2670   25.4730 C   0  0  0  0  0  0  0  0  0  0  0  0
    4.6450   -3.1830   25.4100 O   0  0  0  0  0  0  0  0  0  0  0  0
    6.5330   -2.7930   26.6660 N   0  0  0  0  0  0  0  0  0  0  0  0
    7.1900   -3.7580   27.5910 C   0  0  0  0  0  0  0  0  0  0  0  0
    7.5280   -5.0180   26.8990 C   0  0  0  0  0  0  0  0  0  0  0  0
    8.5970   -5.0680   26.2570 O   0  0  0  0  0  0  0  0  0  0  0  0
    9.4750   -5.9780   26.6770 C   0  0  0  0  0  0  0  0  0  0  0  0
    6.4110   -1.4220   27.0920 C   0  0  0  0  0  0  0  0  0  0  0  0
    6.1250   -0.2930   26.0670 C   0  0  0  0  0  0  0  0  0  0  0  0
    5.9170   -0.5240   24.3460 Cl  0  0  0  0  0  0  0  0  0  0  0  0
    6.0260    1.0990   26.6230 C   0  0  0  0  0  0  0  0  0  0  0  0
    6.1840    1.3150   27.9480 C   0  0  0  0  0  0  0  0  0  0  0  0
    6.4270    0.3400   28.8450 C   0  0  0  0  0  0  0  0  0  0  0  0
    6.5400   -1.0680   28.4210 C   0  0  0  0  0  0  0  0  0  0  0  0
    6.7510   -1.8900   29.4110 N   0  0  0  0  0  0  0  0  0  0  0  0
    7.6370   -1.3670   30.3180 O   0  0  0  0  0  0  0  0  0  0  0  0
    5.6030   -2.3960   29.9300 O   0  0  0  0  0  0  0  0  0  0  0  0
    5.8550   -4.9240   23.6790 C   0  0  0  0  0  0  0  0  0  0  0  0
    6.5580   -5.4230   22.4320 C   0  0  0  0  0  0  0  0  0  0  0  0
  1  2  1  0
  2  3  2  0
  2  4  1  0
  4  5  1  0
  5  6  1  0
  6  7  1  0
  7  8  1  0
  8  9  2  0
  8 10  1  0
 10 11  1  0
 11 12  1  0
 12 13  1  0
 13 14  1  0
 10 15  1  0
 15 16  2  0
 16 17  1  0
 16 18  1  0
 18 19  2  0
 19 20  1  0
 15 21  1  0
 20 21  2  0
 21 22  1  0
 22 23  2  0
 22 24  1  0
  7 25  1  0
  4 26  1  0
 25 26  1  0
M  CHG  2  22   1  24  -1
M  END
