piperidine-amides-8890-covalent
     RDKit          3D

 22 23  0  0  0  0  0  0  0  0999 V2000
    7.0760   -3.3040   19.2690 C   0  0  0  0  0  0  0  0  0  0  0  0
    6.3870   -4.1060   20.2770 C   0  0  0  0  0  0  0  0  0  0  0  0
    5.3430   -4.6940   19.9410 O   0  0  0  0  0  0  0  0  0  0  0  0
    6.9300   -4.2420   21.5800 N   0  0  0  0  0  0  0  0  0  0  0  0
    7.6330   -3.1120   22.1540 C   0  0  0  0  0  0  0  0  0  0  0  0
    7.4520   -3.0110   23.6520 C   0  0  0  0  0  0  0  0  0  0  0  0
    6.0850   -3.5600   23.9950 C   0  0  0  0  0  0  0  0  0  0  0  0
    5.6300   -3.1700   25.3730 C   0  0  0  0  0  0  0  0  0  0  0  0
    4.4840   -2.7350   25.4480 O   0  0  0  0  0  0  0  0  0  0  0  0
    6.4930   -3.3090   26.4510 N   0  0  0  0  0  0  0  0  0  0  0  0
    6.1790   -4.0880   27.6120 C   0  0  0  0  0  0  0  0  0  0  0  0
    5.8200   -5.4340   27.3720 C   0  0  0  0  0  0  0  0  0  0  0  0
    4.5260   -5.7290   26.9980 C   0  0  0  0  0  0  0  0  0  0  0  0
    3.8540   -5.2350   25.8710 N   0  0  0  0  0  0  0  0  0  0  0  0
    2.5890   -5.8300   25.9500 C   0  0  0  0  0  0  0  0  0  0  0  0
    1.5720   -5.5250   24.8880 C   0  0  0  0  0  0  0  0  0  0  0  0
    2.2690   -5.7030   23.5180 C   0  0  0  0  0  0  0  0  0  0  0  0
    1.0170   -4.2800   25.0820 C   0  0  0  0  0  0  0  0  0  0  0  0
    2.5330   -6.6480   27.0930 N   0  0  0  0  0  0  0  0  0  0  0  0
    3.7190   -6.5720   27.7150 O   0  0  0  0  0  0  0  0  0  0  0  0
    6.0670   -5.0120   23.7150 C   0  0  0  0  0  0  0  0  0  0  0  0
    6.5790   -5.4200   22.3310 C   0  0  0  0  0  0  0  0  0  0  0  0
  1  2  1  0
  2  3  2  0
  2  4  1  0
  4  5  1  0
  5  6  1  0
  6  7  1  0
  7  8  1  0
  8  9  2  0
  8 10  1  0
 10 11  1  0
 11 12  1  0
 12 13  1  0
 13 14  2  0
 14 15  1  0
 15 16  1  0
 16 17  1  0
 16 18  1  0
 15 19  2  0
 13 20  1  0
 19 20  1  0
  7 21  1  0
  4 22  1  0
 21 22  1  0
M  END
