piperidine-amides-8060-covalent
     RDKit          3D

 26 28  0  0  0  0  0  0  0  0999 V2000
    7.0820   -3.3130   19.2830 C   0  0  0  0  0  0  0  0  0  0  0  0
    6.4020   -4.1250   20.2890 C   0  0  0  0  0  0  0  0  0  0  0  0
    5.3550   -4.7100   19.9490 O   0  0  0  0  0  0  0  0  0  0  0  0
    6.9560   -4.2750   21.5850 N   0  0  0  0  0  0  0  0  0  0  0  0
    6.5170   -5.3660   22.3930 C   0  0  0  0  0  0  0  0  0  0  0  0
    5.6350   -4.8310   23.4840 C   0  0  0  0  0  0  0  0  0  0  0  0
    6.4220   -3.8010   24.2860 C   0  0  0  0  0  0  0  0  0  0  0  0
    5.5880   -3.3160   25.4420 C   0  0  0  0  0  0  0  0  0  0  0  0
    4.4280   -3.0270   25.1640 O   0  0  0  0  0  0  0  0  0  0  0  0
    6.1410   -3.2130   26.7230 N   0  0  0  0  0  0  0  0  0  0  0  0
    6.1740   -4.3250   27.6220 C   0  0  0  0  0  0  0  0  0  0  0  0
    5.1530   -4.4590   28.5610 C   0  0  0  0  0  0  0  0  0  0  0  0
    5.2490   -5.2890   29.6360 C   0  0  0  0  0  0  0  0  0  0  0  0
    4.1750   -5.3220   30.4760 C   0  0  0  0  0  0  0  0  0  0  0  0
    4.4350   -6.2680   31.6080 C   0  0  0  0  0  0  0  0  0  0  0  0
    3.6230   -6.1550   32.9120 C   0  0  0  0  0  0  0  0  0  0  0  0
    3.8420   -7.0620   34.0680 C   0  0  0  0  0  0  0  0  0  0  0  0
    4.9290   -8.0800   33.8160 C   0  0  0  0  0  0  0  0  0  0  0  0
    5.2400   -8.9240   34.6990 O   0  0  0  0  0  0  0  0  0  0  0  0
    6.0080  -10.0660   34.5640 C   0  0  0  0  0  0  0  0  0  0  0  0
    5.6020   -8.1040   32.6120 C   0  0  0  0  0  0  0  0  0  0  0  0
    5.3770   -7.2520   31.5600 C   0  0  0  0  0  0  0  0  0  0  0  0
    3.0910   -4.5510   30.2060 C   0  0  0  0  0  0  0  0  0  0  0  0
    3.5970   -3.7700   28.7580 S   0  0  0  0  0  0  0  0  0  0  0  0
    6.8260   -2.6400   23.3640 C   0  0  0  0  0  0  0  0  0  0  0  0
    7.6570   -3.2100   22.2380 C   0  0  0  0  0  0  0  0  0  0  0  0
  1  2  1  0
  2  3  2  0
  2  4  1  0
  4  5  1  0
  5  6  1  0
  6  7  1  0
  7  8  1  0
  8  9  2  0
  8 10  1  0
 10 11  1  0
 11 12  1  0
 12 13  2  0
 13 14  1  0
 14 15  1  0
 15 16  2  0
 16 17  1  0
 17 18  2  0
 18 19  1  0
 19 20  1  0
 18 21  1  0
 15 22  1  0
 21 22  2  0
 14 23  2  0
 12 24  1  0
 23 24  1  0
  7 25  1  0
  4 26  1  0
 25 26  1  0
M  END
