piperidine-amides-27997-covalent
     RDKit          3D

 26 28  0  0  0  0  0  0  0  0999 V2000
    7.0590   -3.3590   19.2750 C   0  0  0  0  0  0  0  0  0  0  0  0
    6.3160   -4.1350   20.2930 C   0  0  0  0  0  0  0  0  0  0  0  0
    5.2660   -4.6850   19.9200 O   0  0  0  0  0  0  0  0  0  0  0  0
    6.8170   -4.2680   21.5900 N   0  0  0  0  0  0  0  0  0  0  0  0
    6.6090   -5.4610   22.3510 C   0  0  0  0  0  0  0  0  0  0  0  0
    6.1900   -5.1830   23.7280 C   0  0  0  0  0  0  0  0  0  0  0  0
    6.0860   -3.7380   24.0130 C   0  0  0  0  0  0  0  0  0  0  0  0
    5.5150   -3.4760   25.3750 C   0  0  0  0  0  0  0  0  0  0  0  0
    4.4340   -2.8610   25.3990 O   0  0  0  0  0  0  0  0  0  0  0  0
    6.0870   -3.8820   26.6060 N   0  0  0  0  0  0  0  0  0  0  0  0
    5.3150   -3.8970   27.8550 C   0  0  0  0  0  0  0  0  0  0  0  0
    5.7450   -5.0860   28.6240 C   0  0  0  0  0  0  0  0  0  0  0  0
    7.1530   -5.4660   28.5470 C   0  0  0  0  0  0  0  0  0  0  0  0
    7.8390   -5.2600   27.3730 C   0  0  1  0  0  0  0  0  0  0  0  0
    7.9480   -6.2410   26.6360 O   0  0  0  0  0  0  0  0  0  0  0  0
    7.5140   -4.0520   26.8120 C   0  0  1  0  0  0  0  0  0  0  0  0
    8.1860   -3.5270   25.7860 C   0  0  0  0  0  0  0  0  0  0  0  0
    8.2430   -2.1820   25.9060 C   0  0  0  0  0  0  0  0  0  0  0  0
    7.4610   -1.6090   26.8870 C   0  0  0  0  0  0  0  0  0  0  0  0
    7.8630   -1.7090   28.2300 C   0  0  0  0  0  0  0  0  0  0  0  0
    7.1080   -1.1300   29.3830 C   0  0  0  0  0  0  0  0  0  0  0  0
    5.8260   -0.3960   29.0310 C   0  0  0  0  0  0  0  0  0  0  0  0
    5.5410   -0.3800   27.5590 C   0  0  0  0  0  0  0  0  0  0  0  0
    6.3190   -0.9570   26.5500 C   0  0  0  0  0  0  0  0  0  0  0  0
    7.2400   -2.9540   23.5600 C   0  0  0  0  0  0  0  0  0  0  0  0
    7.6790   -3.2460   22.1720 C   0  0  0  0  0  0  0  0  0  0  0  0
  1  2  1  0
  2  3  2  0
  2  4  1  0
  4  5  1  0
  5  6  1  0
  6  7  1  0
  7  8  1  0
  8  9  2  0
  8 10  1  0
 10 11  1  0
 11 12  1  0
 12 13  1  0
 13 14  1  0
 14 15  1  6
 10 16  1  0
 14 16  1  0
 16 17  1  6
 17 18  1  0
 18 19  1  0
 19 20  2  0
 20 21  1  0
 21 22  2  0
 22 23  1  0
 19 24  1  0
 23 24  2  0
  7 25  1  0
  4 26  1  0
 25 26  1  0
M  END
