piperidine-amides-961-covalent
     RDKit          3D

 24 25  0  0  0  0  0  0  0  0999 V2000
    7.0860   -3.2670   19.2600 C   0  0  0  0  0  0  0  0  0  0  0  0
    6.3130   -4.0540   20.2680 C   0  0  0  0  0  0  0  0  0  0  0  0
    5.2750   -4.6290   19.9070 O   0  0  0  0  0  0  0  0  0  0  0  0
    6.7940   -4.1660   21.5950 N   0  0  0  0  0  0  0  0  0  0  0  0
    6.6290   -5.4070   22.3190 C   0  0  0  0  0  0  0  0  0  0  0  0
    6.1650   -5.0950   23.7550 C   0  0  0  0  0  0  0  0  0  0  0  0
    6.2210   -3.6180   23.9780 C   0  0  0  0  0  0  0  0  0  0  0  0
    5.6590   -3.2230   25.2960 C   0  0  0  0  0  0  0  0  0  0  0  0
    4.5550   -2.6710   25.2680 O   0  0  0  0  0  0  0  0  0  0  0  0
    6.3500   -3.4710   26.4860 N   0  0  0  0  0  0  0  0  0  0  0  0
    5.9560   -4.3670   27.5230 C   0  0  0  0  0  0  0  0  0  0  0  0
    4.7010   -4.2310   28.0610 C   0  0  0  0  0  0  0  0  0  0  0  0
    6.8060   -4.0280   28.7290 C   0  0  0  0  0  0  0  0  0  0  0  0
    6.0370   -5.7730   27.3350 C   0  0  0  0  0  0  0  0  0  0  0  0
    4.7360   -6.4600   27.5360 C   0  0  0  0  0  0  0  0  0  0  0  0
    3.6780   -6.6560   26.4660 C   0  0  0  0  0  0  0  0  0  0  0  0
    2.4320   -7.3740   26.9010 C   0  0  0  0  0  0  0  0  0  0  0  0
    2.2460   -7.8310   28.1790 C   0  0  0  0  0  0  0  0  0  0  0  0
    0.7160   -8.6330   28.4680 Cl  0  0  0  0  0  0  0  0  0  0  0  0
    3.1890   -7.7210   29.3380 C   0  0  0  0  0  0  0  0  0  0  0  0
    4.4760   -6.9870   28.9140 C   0  0  0  0  0  0  0  0  0  0  0  0
    5.6940   -6.7820   30.1870 Cl  0  0  0  0  0  0  0  0  0  0  0  0
    7.5880   -3.1930   23.6770 C   0  0  0  0  0  0  0  0  0  0  0  0
    7.6470   -3.1350   22.1390 C   0  0  0  0  0  0  0  0  0  0  0  0
  1  2  1  0
  2  3  2  0
  2  4  1  0
  4  5  1  0
  5  6  1  0
  6  7  1  0
  7  8  1  0
  8  9  2  0
  8 10  1  0
 11 10  1  0
 11 12  1  0
 11 13  1  0
 11 14  1  0
 14 15  1  0
 15 16  2  0
 16 17  1  0
 17 18  2  0
 18 19  1  0
 18 20  1  0
 15 21  1  0
 20 21  2  0
 21 22  1  0
  7 23  1  0
  4 24  1  0
 23 24  1  0
M  END
