piperidine-amides-17159-covalent
     RDKit          3D

 20 21  0  0  0  0  0  0  0  0999 V2000
    7.0970   -3.3510   19.2810 C   0  0  0  0  0  0  0  0  0  0  0  0
    6.4290   -4.1770   20.2910 C   0  0  0  0  0  0  0  0  0  0  0  0
    5.3580   -4.7320   19.9520 O   0  0  0  0  0  0  0  0  0  0  0  0
    7.0200   -4.3930   21.5600 N   0  0  0  0  0  0  0  0  0  0  0  0
    6.5280   -5.4730   22.3370 C   0  0  0  0  0  0  0  0  0  0  0  0
    5.9380   -5.0680   23.6120 C   0  0  0  0  0  0  0  0  0  0  0  0
    6.5230   -3.8660   24.2540 C   0  0  0  0  0  0  0  0  0  0  0  0
    5.6560   -3.4270   25.3970 C   0  0  0  0  0  0  0  0  0  0  0  0
    4.7690   -2.5720   25.2230 O   0  0  0  0  0  0  0  0  0  0  0  0
    5.8600   -4.0040   26.6570 N   0  0  0  0  0  0  0  0  0  0  0  0
    6.9490   -4.7510   26.9600 C   0  0  0  0  0  0  0  0  0  0  0  0
    6.8440   -6.0040   27.5860 C   0  0  0  0  0  0  0  0  0  0  0  0
    6.8830   -5.5750   29.0320 C   0  0  0  0  0  0  0  0  0  0  0  0
    5.6010   -5.3490   29.4940 O   0  0  0  0  0  0  0  0  0  0  0  0
    4.7430   -4.5440   28.7050 C   0  0  2  0  0  0  0  0  0  0  0  0
    4.2040   -5.2910   27.4720 C   0  0  0  0  0  0  0  0  0  0  0  0
    3.6070   -6.3610   28.3330 C   0  0  0  0  0  0  0  0  0  0  0  0
    5.3300   -3.4380   27.8670 C   0  0  0  0  0  0  0  0  0  0  0  0
    6.8190   -2.7460   23.2920 C   0  0  0  0  0  0  0  0  0  0  0  0
    7.7280   -3.3210   22.2320 C   0  0  0  0  0  0  0  0  0  0  0  0
  1  2  1  0
  2  3  2  0
  2  4  1  0
  4  5  1  0
  5  6  1  0
  6  7  1  0
  7  8  1  0
  8  9  2  0
  8 10  1  0
 10 11  1  0
 11 12  1  0
 12 13  1  0
 13 14  1  0
 14 15  1  0
 15 16  1  6
 16 17  1  0
 10 18  1  0
 15 18  1  0
  7 19  1  0
  4 20  1  0
 19 20  1  0
M  END
