piperidine-amides-14435-covalent
     RDKit          3D

 23 24  0  0  0  0  0  0  0  0999 V2000
    7.0820   -3.2770   19.2650 C   0  0  0  0  0  0  0  0  0  0  0  0
    6.3770   -4.0650   20.2770 C   0  0  0  0  0  0  0  0  0  0  0  0
    5.3430   -4.6650   19.9310 O   0  0  0  0  0  0  0  0  0  0  0  0
    6.8810   -4.1770   21.6020 N   0  0  0  0  0  0  0  0  0  0  0  0
    7.6980   -3.1090   22.1340 C   0  0  0  0  0  0  0  0  0  0  0  0
    7.5080   -2.9810   23.6210 C   0  0  0  0  0  0  0  0  0  0  0  0
    6.1370   -3.5340   23.9180 C   0  0  0  0  0  0  0  0  0  0  0  0
    5.6500   -3.1720   25.2960 C   0  0  0  0  0  0  0  0  0  0  0  0
    4.4450   -2.9430   25.3860 O   0  0  0  0  0  0  0  0  0  0  0  0
    6.5470   -3.1100   26.3610 N   0  0  0  0  0  0  0  0  0  0  0  0
    6.2440   -3.6490   27.6550 C   0  0  0  0  0  0  0  0  0  0  0  0
    5.4470   -4.8030   27.6460 C   0  0  1  0  0  0  0  0  0  0  0  0
    5.6140   -5.7330   26.6520 C   0  0  0  0  0  0  0  0  0  0  0  0
    4.5130   -6.3890   26.1190 C   0  0  0  0  0  0  0  0  0  0  0  0
    3.8200   -7.3220   27.0650 C   0  0  0  0  0  0  0  0  0  0  0  0
    5.2220   -5.6080   28.7620 C   0  0  0  0  0  0  0  0  0  0  0  0
    6.2740   -6.5780   29.1930 C   0  0  0  0  0  0  0  0  0  0  0  0
    5.9220   -7.4050   30.4000 C   0  0  0  0  0  0  0  0  0  0  0  0
    4.5480   -7.1470   31.0250 C   0  0  0  0  0  0  0  0  0  0  0  0
    3.6820   -6.2230   30.5280 C   0  0  0  0  0  0  0  0  0  0  0  0
    3.9920   -5.4610   29.4210 C   0  0  0  0  0  0  0  0  0  0  0  0
    6.0950   -5.0130   23.7190 C   0  0  0  0  0  0  0  0  0  0  0  0
    6.6470   -5.3690   22.3690 C   0  0  0  0  0  0  0  0  0  0  0  0
  1  2  1  0
  2  3  2  0
  2  4  1  0
  4  5  1  0
  5  6  1  0
  6  7  1  0
  7  8  1  0
  8  9  2  0
  8 10  1  0
 10 11  1  0
 12 11  1  1
 12 13  1  0
 13 14  1  0
 14 15  2  3
 12 16  1  0
 16 17  2  0
 17 18  1  0
 18 19  2  0
 19 20  1  0
 16 21  1  0
 20 21  2  0
  7 22  1  0
  4 23  1  0
 22 23  1  0
M  END
