piperidine-amides-12345-covalent
     RDKit          3D

 24 26  0  0  0  0  0  0  0  0999 V2000
    7.0750   -3.2900   19.2800 C   0  0  0  0  0  0  0  0  0  0  0  0
    6.3450   -4.0840   20.2650 C   0  0  0  0  0  0  0  0  0  0  0  0
    5.3280   -4.6940   19.9340 O   0  0  0  0  0  0  0  0  0  0  0  0
    6.8290   -4.1940   21.6120 N   0  0  0  0  0  0  0  0  0  0  0  0
    6.6080   -5.4160   22.3410 C   0  0  0  0  0  0  0  0  0  0  0  0
    5.9530   -5.0980   23.6500 C   0  0  0  0  0  0  0  0  0  0  0  0
    6.0880   -3.6000   23.8410 C   0  0  0  0  0  0  0  0  0  0  0  0
    5.6130   -3.2280   25.2010 C   0  0  0  0  0  0  0  0  0  0  0  0
    4.4230   -2.9560   25.4460 O   0  0  0  0  0  0  0  0  0  0  0  0
    6.5680   -3.1850   26.2360 N   0  0  0  0  0  0  0  0  0  0  0  0
    6.1720   -2.8940   27.5930 C   0  0  0  0  0  0  0  0  0  0  0  0
    5.5670   -4.1130   28.2540 C   0  0  0  0  0  0  0  0  0  0  0  0
    5.9770   -4.6830   29.4160 N   0  0  0  0  0  0  0  0  0  0  0  0
    5.1120   -5.7130   29.5930 C   0  0  0  0  0  0  0  0  0  0  0  0
    5.0330   -6.6730   30.6520 C   0  0  0  0  0  0  0  0  0  0  0  0
    5.9200   -6.6970   31.7560 O   0  0  0  0  0  0  0  0  0  0  0  0
    5.5290   -7.3340   32.9600 C   0  0  0  0  0  0  0  0  0  0  0  0
    4.0160   -7.6030   30.5430 C   0  0  0  0  0  0  0  0  0  0  0  0
    3.1360   -7.6300   29.4970 C   0  0  0  0  0  0  0  0  0  0  0  0
    3.2130   -6.7210   28.4910 C   0  0  0  0  0  0  0  0  0  0  0  0
    4.2080   -5.7720   28.5660 C   0  0  0  0  0  0  0  0  0  0  0  0
    4.5190   -4.7710   27.7570 N   0  0  0  0  0  0  0  0  0  0  0  0
    7.4070   -3.0730   23.5550 C   0  0  0  0  0  0  0  0  0  0  0  0
    7.6730   -3.1700   22.1990 C   0  0  0  0  0  0  0  0  0  0  0  0
  1  2  1  0
  2  3  2  0
  2  4  1  0
  4  5  1  0
  5  6  1  0
  6  7  1  0
  7  8  1  0
  8  9  2  0
  8 10  1  0
 10 11  1  0
 11 12  1  0
 12 13  2  0
 13 14  1  0
 14 15  2  0
 15 16  1  0
 16 17  1  0
 15 18  1  0
 18 19  2  0
 19 20  1  0
 14 21  1  0
 20 21  2  0
 12 22  1  0
 21 22  1  0
  7 23  1  0
  4 24  1  0
 23 24  1  0
M  END
