piperidine-amides-14365-covalent
     RDKit          3D

 22 23  0  0  0  0  0  0  0  0999 V2000
    7.1260   -3.2730   19.1940 C   0  0  0  0  0  0  0  0  0  0  0  0
    6.3820   -4.0320   20.2000 C   0  0  0  0  0  0  0  0  0  0  0  0
    5.2940   -4.5340   19.8770 O   0  0  0  0  0  0  0  0  0  0  0  0
    6.9290   -4.2330   21.4870 N   0  0  0  0  0  0  0  0  0  0  0  0
    6.4400   -5.3340   22.2660 C   0  0  0  0  0  0  0  0  0  0  0  0
    5.7490   -4.7880   23.4820 C   0  0  0  0  0  0  0  0  0  0  0  0
    6.7640   -3.9120   24.1840 C   0  0  0  0  0  0  0  0  0  0  0  0
    6.2450   -3.4260   25.4890 C   0  0  0  0  0  0  0  0  0  0  0  0
    5.0320   -3.2150   25.5750 O   0  0  0  0  0  0  0  0  0  0  0  0
    7.1960   -3.2460   26.4890 N   0  0  0  0  0  0  0  0  0  0  0  0
    7.4870   -4.2280   27.4780 C   0  0  1  0  0  0  0  0  0  0  0  0
    6.6970   -4.1380   28.6140 C   0  0  0  0  0  0  0  0  0  0  0  0
    7.1160   -5.5510   26.9740 C   0  0  0  0  0  0  0  0  0  0  0  0
    6.1580   -6.2360   27.6940 C   0  0  0  0  0  0  0  0  0  0  0  0
    4.9480   -6.6130   26.9370 C   0  0  0  0  0  0  0  0  0  0  0  0
    3.7830   -7.3820   27.6080 C   0  0  0  0  0  0  0  0  0  0  0  0
    3.9670   -7.7100   29.0670 C   0  0  0  0  0  0  0  0  0  0  0  0
    5.2680   -7.2460   29.6820 C   0  0  0  0  0  0  0  0  0  0  0  0
    5.5370   -7.5390   31.1780 C   0  0  0  0  0  0  0  0  0  0  0  0
    6.2550   -6.5730   29.0270 C   0  0  0  0  0  0  0  0  0  0  0  0
    6.9930   -2.7110   23.3280 C   0  0  0  0  0  0  0  0  0  0  0  0
    7.6540   -3.1190   22.0510 C   0  0  0  0  0  0  0  0  0  0  0  0
  1  2  1  0
  2  3  2  0
  2  4  1  0
  4  5  1  0
  5  6  1  0
  6  7  1  0
  7  8  1  0
  8  9  2  0
  8 10  1  0
 10 11  1  0
 11 12  1  1
 11 13  1  0
 13 14  1  0
 14 15  2  0
 15 16  1  0
 16 17  2  0
 17 18  1  0
 18 19  1  0
 14 20  1  0
 18 20  2  0
  7 21  1  0
  4 22  1  0
 21 22  1  0
M  END
