piperidine-amides-4044-covalent
     RDKit          3D

 28 30  0  0  0  0  0  0  0  0999 V2000
    7.0780   -3.3640   19.3110 C   0  0  0  0  0  0  0  0  0  0  0  0
    6.3500   -4.1520   20.3190 C   0  0  0  0  0  0  0  0  0  0  0  0
    5.2960   -4.7080   19.9390 O   0  0  0  0  0  0  0  0  0  0  0  0
    6.8550   -4.3230   21.6360 N   0  0  0  0  0  0  0  0  0  0  0  0
    7.6610   -3.2870   22.1760 C   0  0  0  0  0  0  0  0  0  0  0  0
    7.2600   -2.9260   23.5090 C   0  0  0  0  0  0  0  0  0  0  0  0
    5.9980   -3.5710   23.8990 C   0  0  0  0  0  0  0  0  0  0  0  0
    5.7010   -3.2180   25.3180 C   0  0  0  0  0  0  0  0  0  0  0  0
    4.5960   -3.4980   25.8250 O   0  0  0  0  0  0  0  0  0  0  0  0
    6.6900   -2.5630   26.0620 N   0  0  0  0  0  0  0  0  0  0  0  0
    6.6130   -1.5750   27.0700 C   0  0  0  0  0  0  0  0  0  0  0  0
    7.0100   -1.7100   28.4400 C   0  0  0  0  0  0  0  0  0  0  0  0
    6.8540   -0.4950   29.3790 C   0  0  0  0  0  0  0  0  0  0  0  0
    6.3480    0.7810   29.0430 C   0  0  0  0  0  0  0  0  0  0  0  0
    5.8790    1.0530   27.5870 C   0  0  0  0  0  0  0  0  0  0  0  0
    6.1080   -0.2070   26.8620 C   0  0  0  0  0  0  0  0  0  0  0  0
    5.7550   -0.2840   25.3660 C   0  0  0  0  0  0  0  0  0  0  0  0
    5.3650    0.9400   24.7260 N   0  0  0  0  0  0  0  0  0  0  0  0
    4.2630    1.4890   25.4070 C   0  0  0  0  0  0  0  0  0  0  0  0
    3.1680    2.1750   24.6000 C   0  0  0  0  0  0  0  0  0  0  0  0
    3.6070    2.7730   23.2500 C   0  0  0  0  0  0  0  0  0  0  0  0
    5.0850    2.6790   23.1320 C   0  0  2  0  0  0  0  0  0  0  0  0
    5.5970    3.2910   21.9870 C   0  0  0  0  0  0  0  0  0  0  0  0
    4.9910    2.9980   20.7350 N   0  0  0  0  0  0  0  0  0  0  0  0
    6.6710    4.1730   22.1070 O   0  0  0  0  0  0  0  0  0  0  0  0
    5.4930    1.3740   23.3190 C   0  0  0  0  0  0  0  0  0  0  0  0
    6.0220   -5.0580   23.6960 C   0  0  0  0  0  0  0  0  0  0  0  0
    6.5380   -5.4750   22.4560 C   0  0  0  0  0  0  0  0  0  0  0  0
  1  2  1  0
  2  3  2  0
  2  4  1  0
  4  5  1  0
  5  6  1  0
  6  7  1  0
  7  8  1  0
  8  9  2  0
  8 10  1  0
 10 11  1  0
 11 12  2  0
 12 13  1  0
 13 14  2  0
 14 15  1  0
 11 16  1  0
 15 16  2  0
 16 17  1  0
 17 18  1  0
 18 19  1  0
 19 20  1  0
 20 21  1  0
 21 22  1  0
 22 23  1  6
 23 24  1  0
 23 25  2  0
 18 26  1  0
 22 26  1  0
  7 27  1  0
  4 28  1  0
 27 28  1  0
M  END
