piperidine-amides-6966-covalent
     RDKit          3D

 22 24  0  0  0  0  0  0  0  0999 V2000
    7.0640   -3.3230   19.3380 C   0  0  0  0  0  0  0  0  0  0  0  0
    6.3870   -4.1760   20.3280 C   0  0  0  0  0  0  0  0  0  0  0  0
    5.3980   -4.8640   19.9880 O   0  0  0  0  0  0  0  0  0  0  0  0
    6.8700   -4.2540   21.6450 N   0  0  0  0  0  0  0  0  0  0  0  0
    7.7070   -3.1750   22.1580 C   0  0  0  0  0  0  0  0  0  0  0  0
    7.4090   -2.9530   23.6480 C   0  0  0  0  0  0  0  0  0  0  0  0
    6.0570   -3.5590   23.9150 C   0  0  0  0  0  0  0  0  0  0  0  0
    5.6140   -3.2350   25.2870 C   0  0  0  0  0  0  0  0  0  0  0  0
    4.3950   -3.2930   25.5460 O   0  0  0  0  0  0  0  0  0  0  0  0
    6.5710   -2.8760   26.2550 N   0  0  0  0  0  0  0  0  0  0  0  0
    6.4690   -1.6430   26.9880 C   0  0  0  0  0  0  0  0  0  0  0  0
    7.0570   -1.5350   28.4060 C   0  0  0  0  0  0  0  0  0  0  0  0
    7.0100   -0.3860   29.1920 C   0  0  0  0  0  0  0  0  0  0  0  0
    7.5760   -0.4230   30.4380 C   0  0  0  0  0  0  0  0  0  0  0  0
    6.3980    0.7160   28.6670 C   0  0  0  0  0  0  0  0  0  0  0  0
    6.1440    1.9770   29.0750 C   0  0  0  0  0  0  0  0  0  0  0  0
    5.4860    2.7030   28.1510 N   0  0  0  0  0  0  0  0  0  0  0  0
    5.2370    1.9950   27.0320 N   0  0  0  0  0  0  0  0  0  0  0  0
    5.7800    0.7670   27.3050 C   0  0  0  0  0  0  0  0  0  0  0  0
    5.8120   -0.4310   26.4400 C   0  0  0  0  0  0  0  0  0  0  0  0
    6.0280   -5.0160   23.7180 C   0  0  0  0  0  0  0  0  0  0  0  0
    6.6150   -5.4060   22.4440 C   0  0  0  0  0  0  0  0  0  0  0  0
  1  2  1  0
  2  3  2  0
  2  4  1  0
  4  5  1  0
  5  6  1  0
  6  7  1  0
  7  8  1  0
  8  9  2  0
  8 10  1  0
 10 11  1  0
 11 12  2  0
 12 13  1  0
 13 14  1  0
 13 15  2  0
 15 16  1  0
 16 17  2  0
 17 18  1  0
 15 19  1  0
 18 19  1  0
 11 20  1  0
 19 20  2  0
  7 21  1  0
  4 22  1  0
 21 22  1  0
M  END
