piperidine-amides-5069-covalent
     RDKit          3D

 22 23  0  0  0  0  0  0  0  0999 V2000
    7.1230   -3.2480   19.1740 C   0  0  0  0  0  0  0  0  0  0  0  0
    6.3570   -3.9990   20.2010 C   0  0  0  0  0  0  0  0  0  0  0  0
    5.2650   -4.4790   19.8470 O   0  0  0  0  0  0  0  0  0  0  0  0
    6.8620   -4.2000   21.4900 N   0  0  0  0  0  0  0  0  0  0  0  0
    7.6110   -3.1620   22.1220 C   0  0  0  0  0  0  0  0  0  0  0  0
    7.2990   -2.9490   23.5350 C   0  0  0  0  0  0  0  0  0  0  0  0
    6.4480   -3.9760   24.1810 C   0  0  0  0  0  0  0  0  0  0  0  0
    5.7650   -3.3810   25.3630 C   0  0  0  0  0  0  0  0  0  0  0  0
    4.5380   -3.1700   25.2850 O   0  0  0  0  0  0  0  0  0  0  0  0
    6.4870   -3.0330   26.5270 N   0  0  0  0  0  0  0  0  0  0  0  0
    6.3190   -3.6720   27.8670 C   0  0  1  0  0  0  0  0  0  0  0  0
    5.5020   -2.7870   28.7450 C   0  0  0  0  0  0  0  0  0  0  0  0
    4.1440   -2.7820   29.2040 N   0  0  0  0  0  0  0  0  0  0  0  0
    3.7490   -1.6830   30.0810 C   0  0  0  0  0  0  0  0  0  0  0  0
    4.8720   -0.8970   30.2370 C   0  0  0  0  0  0  0  0  0  0  0  0
    6.4090   -1.3850   29.3930 S   0  0  0  0  0  0  0  0  0  0  0  0
    5.9190   -5.0810   27.8370 C   0  0  0  0  0  0  0  0  0  0  0  0
    6.7600   -5.7900   28.6300 F   0  0  0  0  0  0  0  0  0  0  0  0
    4.6190   -5.2180   28.2890 F   0  0  0  0  0  0  0  0  0  0  0  0
    5.9510   -5.5910   26.5470 F   0  0  0  0  0  0  0  0  0  0  0  0
    5.5570   -4.7320   23.2520 C   0  0  0  0  0  0  0  0  0  0  0  0
    6.3430   -5.2640   22.2760 C   0  0  0  0  0  0  0  0  0  0  0  0
  1  2  1  0
  2  3  2  0
  2  4  1  0
  4  5  1  0
  5  6  1  0
  6  7  1  0
  7  8  1  0
  8  9  2  0
  8 10  1  0
 11 10  1  6
 11 12  1  0
 12 13  2  0
 13 14  1  0
 14 15  2  0
 12 16  1  0
 15 16  1  0
 11 17  1  0
 17 18  1  0
 17 19  1  0
 17 20  1  0
  7 21  1  0
  4 22  1  0
 21 22  1  0
M  END
