piperidine-amides-12487-covalent
     RDKit          3D

 23 25  0  0  0  0  0  0  0  0999 V2000
    7.0870   -3.3410   19.3200 C   0  0  0  0  0  0  0  0  0  0  0  0
    6.3390   -4.1400   20.2790 C   0  0  0  0  0  0  0  0  0  0  0  0
    5.3150   -4.7260   19.9410 O   0  0  0  0  0  0  0  0  0  0  0  0
    6.8340   -4.2860   21.6130 N   0  0  0  0  0  0  0  0  0  0  0  0
    7.6300   -3.2260   22.1870 C   0  0  0  0  0  0  0  0  0  0  0  0
    6.9100   -2.6310   23.3580 C   0  0  0  0  0  0  0  0  0  0  0  0
    6.4540   -3.7900   24.2110 C   0  0  0  0  0  0  0  0  0  0  0  0
    5.7430   -3.2740   25.4190 C   0  0  0  0  0  0  0  0  0  0  0  0
    4.5220   -3.0240   25.4750 O   0  0  0  0  0  0  0  0  0  0  0  0
    6.5230   -3.0840   26.5760 N   0  0  0  0  0  0  0  0  0  0  0  0
    6.5150   -1.8480   27.3310 C   0  0  0  0  0  0  0  0  0  0  0  0
    5.9390   -0.6320   26.6270 C   0  0  0  0  0  0  0  0  0  0  0  0
    5.8870    0.5990   27.2750 C   0  0  0  0  0  0  0  0  0  0  0  0
    6.3830    0.6520   28.5850 C   0  0  0  0  0  0  0  0  0  0  0  0
    6.4110    1.8180   29.4010 O   0  0  0  0  0  0  0  0  0  0  0  0
    6.9910    1.2980   30.5600 C   0  0  0  0  0  0  0  0  0  0  0  0
    7.3090    1.9720   31.8130 C   0  0  0  0  0  0  0  0  0  0  0  0
    7.4500    1.0760   32.8510 O   0  0  0  0  0  0  0  0  0  0  0  0
    7.2590   -0.0040   30.4160 C   0  0  0  0  0  0  0  0  0  0  0  0
    6.8990   -0.4950   29.1770 C   0  0  0  0  0  0  0  0  0  0  0  0
    6.9830   -1.7390   28.5990 C   0  0  0  0  0  0  0  0  0  0  0  0
    5.7240   -4.8440   23.5240 C   0  0  0  0  0  0  0  0  0  0  0  0
    6.4300   -5.3780   22.4590 C   0  0  0  0  0  0  0  0  0  0  0  0
  1  2  1  0
  2  3  2  0
  2  4  1  0
  4  5  1  0
  5  6  1  0
  6  7  1  0
  7  8  1  0
  8  9  2  0
  8 10  1  0
 10 11  1  0
 11 12  2  0
 12 13  1  0
 13 14  2  0
 14 15  1  0
 15 16  1  0
 16 17  1  0
 17 18  1  0
 16 19  2  0
 14 20  1  0
 19 20  1  0
 11 21  1  0
 20 21  2  0
  7 22  1  0
  4 23  1  0
 22 23  1  0
M  END
