piperidine-amides-29049-covalent
     RDKit          3D

 26 28  0  0  0  0  0  0  0  0999 V2000
    7.0520   -3.3620   19.3780 C   0  0  0  0  0  0  0  0  0  0  0  0
    6.4220   -4.2430   20.3570 C   0  0  0  0  0  0  0  0  0  0  0  0
    5.4120   -4.8770   19.9950 O   0  0  0  0  0  0  0  0  0  0  0  0
    6.9840   -4.3970   21.6610 N   0  0  0  0  0  0  0  0  0  0  0  0
    6.5300   -5.4760   22.4690 C   0  0  0  0  0  0  0  0  0  0  0  0
    5.5700   -4.9250   23.4890 C   0  0  0  0  0  0  0  0  0  0  0  0
    6.2750   -3.8510   24.3100 C   0  0  0  0  0  0  0  0  0  0  0  0
    5.2700   -3.1410   25.1910 C   0  0  0  0  0  0  0  0  0  0  0  0
    4.3480   -2.6260   24.5800 O   0  0  0  0  0  0  0  0  0  0  0  0
    5.3730   -3.0790   26.5920 N   0  0  0  0  0  0  0  0  0  0  0  0
    4.2690   -3.2420   27.4000 C   0  0  0  0  0  0  0  0  0  0  0  0
    4.4300   -4.3690   28.1670 C   0  0  0  0  0  0  0  0  0  0  0  0
    5.3900   -4.3580   29.1240 C   0  0  0  0  0  0  0  0  0  0  0  0
    5.5300   -3.0530   29.5300 O   0  0  0  0  0  0  0  0  0  0  0  0
    5.1490   -5.3860   30.0110 C   0  0  0  0  0  0  0  0  0  0  0  0
    6.1140   -6.4950   29.8560 C   0  0  0  0  0  0  0  0  0  0  0  0
    7.0750   -6.4060   28.9130 F   0  0  0  0  0  0  0  0  0  0  0  0
    5.9390   -7.6850   30.8090 C   0  0  0  0  0  0  0  0  0  0  0  0
    4.8490   -7.6940   31.8190 C   0  0  0  0  0  0  0  0  0  0  0  0
    3.8880   -6.5440   31.9300 C   0  0  0  0  0  0  0  0  0  0  0  0
    4.1120   -5.3730   30.9450 C   0  0  0  0  0  0  0  0  0  0  0  0
    3.1870   -4.3340   31.0990 F   0  0  0  0  0  0  0  0  0  0  0  0
    6.4610   -4.4880   28.0410 C   0  0  0  0  0  0  0  0  0  0  0  0
    6.5680   -3.3110   27.2560 C   0  0  0  0  0  0  0  0  0  0  0  0
    6.9740   -2.8010   23.4950 C   0  0  0  0  0  0  0  0  0  0  0  0
    7.7170   -3.3450   22.3040 C   0  0  0  0  0  0  0  0  0  0  0  0
  1  2  1  0
  2  3  2  0
  2  4  1  0
  4  5  1  0
  5  6  1  0
  6  7  1  0
  7  8  1  0
  8  9  2  0
  8 10  1  0
 10 11  1  0
 11 12  1  0
 12 13  1  0
 13 14  1  0
 13 15  1  0
 15 16  2  0
 16 17  1  0
 16 18  1  0
 18 19  2  0
 19 20  1  0
 15 21  1  0
 20 21  2  0
 21 22  1  0
 13 23  1  0
 10 24  1  0
 23 24  1  0
  7 25  1  0
  4 26  1  0
 25 26  1  0
M  END
