piperidine-amides-14053-covalent
     RDKit          3D

 25 26  0  0  0  0  0  0  0  0999 V2000
    7.1270   -3.3540   19.3450 C   0  0  0  0  0  0  0  0  0  0  0  0
    6.3900   -4.1950   20.3160 C   0  0  0  0  0  0  0  0  0  0  0  0
    5.3350   -4.7470   19.9600 O   0  0  0  0  0  0  0  0  0  0  0  0
    6.9480   -4.3900   21.5940 N   0  0  0  0  0  0  0  0  0  0  0  0
    6.4960   -5.4610   22.4330 C   0  0  0  0  0  0  0  0  0  0  0  0
    5.6110   -4.7930   23.4900 C   0  0  0  0  0  0  0  0  0  0  0  0
    6.4340   -3.7780   24.2290 C   0  0  0  0  0  0  0  0  0  0  0  0
    5.7530   -3.3280   25.4590 C   0  0  0  0  0  0  0  0  0  0  0  0
    4.5170   -3.3560   25.4420 O   0  0  0  0  0  0  0  0  0  0  0  0
    6.4920   -2.8900   26.5600 N   0  0  0  0  0  0  0  0  0  0  0  0
    6.4020   -1.6180   27.1830 C   0  0  0  0  0  0  0  0  0  0  0  0
    6.9730   -1.5030   28.4320 C   0  0  0  0  0  0  0  0  0  0  0  0
    6.9970   -0.3870   29.2110 C   0  0  0  0  0  0  0  0  0  0  0  0
    6.4240    0.7300   28.7690 C   0  0  0  0  0  0  0  0  0  0  0  0
    6.3040    1.9360   29.3110 O   0  0  0  0  0  0  0  0  0  0  0  0
    5.0680    2.1750   29.6860 C   0  0  0  0  0  0  0  0  0  0  0  0
    5.0730    3.1910   30.8390 C   0  0  0  0  0  0  0  0  0  0  0  0
    6.2870    3.2130   31.6000 N   0  0  0  0  0  0  0  0  0  0  0  0
    6.1670    3.6500   32.9440 C   0  0  0  0  0  0  0  0  0  0  0  0
    7.3110    4.1260   33.5490 C   0  0  0  0  0  0  0  0  0  0  0  0
    5.0670    3.6850   33.7850 O   0  0  0  0  0  0  0  0  0  0  0  0
    5.8330    0.6970   27.5270 C   0  0  0  0  0  0  0  0  0  0  0  0
    5.7030   -0.4580   26.4990 C   0  0  0  0  0  0  0  0  0  0  0  0
    6.7850   -2.6910   23.3070 C   0  0  0  0  0  0  0  0  0  0  0  0
    7.6720   -3.3290   22.2340 C   0  0  0  0  0  0  0  0  0  0  0  0
  1  2  1  0
  2  3  2  0
  2  4  1  0
  4  5  1  0
  5  6  1  0
  6  7  1  0
  7  8  1  0
  8  9  2  0
  8 10  1  0
 10 11  1  0
 11 12  2  0
 12 13  1  0
 13 14  2  0
 14 15  1  0
 15 16  1  0
 16 17  1  0
 17 18  1  0
 18 19  1  0
 19 20  1  0
 19 21  2  0
 14 22  1  0
 11 23  1  0
 22 23  2  0
  7 24  1  0
  4 25  1  0
 24 25  1  0
M  END
