piperidine-amides-27635-covalent
     RDKit          3D

 26 29  0  0  0  0  0  0  0  0999 V2000
    7.1220   -3.3610   19.3350 C   0  0  0  0  0  0  0  0  0  0  0  0
    6.4950   -4.2290   20.3360 C   0  0  0  0  0  0  0  0  0  0  0  0
    5.4240   -4.8010   19.9820 O   0  0  0  0  0  0  0  0  0  0  0  0
    7.1070   -4.4410   21.5820 N   0  0  0  0  0  0  0  0  0  0  0  0
    6.7210   -5.5330   22.4260 C   0  0  0  0  0  0  0  0  0  0  0  0
    6.6410   -4.9810   23.8290 C   0  0  0  0  0  0  0  0  0  0  0  0
    6.1110   -3.5670   23.8440 C   0  0  0  0  0  0  0  0  0  0  0  0
    5.9040   -2.9910   25.1930 C   0  0  0  0  0  0  0  0  0  0  0  0
    5.5830   -1.7940   25.2390 O   0  0  0  0  0  0  0  0  0  0  0  0
    5.9590   -3.6560   26.4150 N   0  0  0  0  0  0  0  0  0  0  0  0
    6.6880   -4.8480   26.5740 C   0  0  2  0  0  0  0  0  0  0  0  0
    5.5870   -5.7900   26.1940 C   0  0  0  0  0  0  0  0  0  0  0  0
    4.4340   -5.1190   26.4080 C   0  0  0  0  0  0  0  0  0  0  0  0
    4.6690   -3.8850   27.0140 C   0  0  1  0  0  0  0  0  0  0  0  0
    4.8070   -3.9940   28.3680 C   0  0  0  0  0  0  0  0  0  0  0  0
    5.9710   -4.4950   28.9060 C   0  0  1  0  0  0  0  0  0  0  0  0
    6.6150   -3.3580   29.3830 O   0  0  0  0  0  0  0  0  0  0  0  0
    5.5560   -5.4440   29.7920 C   0  0  0  0  0  0  0  0  0  0  0  0
    6.3970   -6.6920   29.8720 C   0  0  0  0  0  0  0  0  0  0  0  0
    5.8880   -7.6830   30.8940 C   0  0  0  0  0  0  0  0  0  0  0  0
    4.6690   -7.4460   31.7120 C   0  0  0  0  0  0  0  0  0  0  0  0
    3.9200   -6.1690   31.5160 C   0  0  0  0  0  0  0  0  0  0  0  0
    4.4070   -5.2730   30.5900 C   0  0  0  0  0  0  0  0  0  0  0  0
    6.8050   -5.1580   28.0090 C   0  0  0  0  0  0  0  0  0  0  0  0
    6.9830   -2.6150   23.0890 C   0  0  0  0  0  0  0  0  0  0  0  0
    7.9200   -3.3950   22.1800 C   0  0  0  0  0  0  0  0  0  0  0  0
  1  2  1  0
  2  3  2  0
  2  4  1  0
  4  5  1  0
  5  6  1  0
  6  7  1  0
  7  8  1  0
  8  9  2  0
  8 10  1  0
 10 11  1  0
 11 12  1  6
 12 13  1  0
 10 14  1  0
 14 13  1  6
 14 15  1  0
 15 16  1  0
 16 17  1  1
 16 18  1  0
 18 19  2  0
 19 20  1  0
 20 21  2  0
 21 22  1  0
 18 23  1  0
 22 23  2  0
 11 24  1  0
 16 24  1  0
  7 25  1  0
  4 26  1  0
 25 26  1  0
M  END
