piperidine-amides-2631-covalent
     RDKit          3D

 25 27  0  0  0  0  0  0  0  0999 V2000
    7.0680   -3.2780   19.2330 C   0  0  0  0  0  0  0  0  0  0  0  0
    6.3520   -4.0690   20.2710 C   0  0  0  0  0  0  0  0  0  0  0  0
    5.3230   -4.6420   19.9200 O   0  0  0  0  0  0  0  0  0  0  0  0
    6.8660   -4.1770   21.5710 N   0  0  0  0  0  0  0  0  0  0  0  0
    7.7470   -3.1770   22.1400 C   0  0  0  0  0  0  0  0  0  0  0  0
    7.3300   -2.8300   23.5410 C   0  0  0  0  0  0  0  0  0  0  0  0
    6.0260   -3.5430   23.8660 C   0  0  0  0  0  0  0  0  0  0  0  0
    5.6720   -3.1770   25.2450 C   0  0  0  0  0  0  0  0  0  0  0  0
    4.4930   -3.2600   25.6070 O   0  0  0  0  0  0  0  0  0  0  0  0
    6.6670   -2.7310   26.1320 N   0  0  0  0  0  0  0  0  0  0  0  0
    6.3860   -1.6050   26.9940 C   0  0  0  0  0  0  0  0  0  0  0  0
    5.3590   -2.0850   28.0040 C   0  0  0  0  0  0  0  0  0  0  0  0
    4.8930   -3.3710   28.1110 C   0  0  0  0  0  0  0  0  0  0  0  0
    3.9700   -3.7530   29.0260 C   0  0  0  0  0  0  0  0  0  0  0  0
    3.4340   -2.8750   29.9150 C   0  0  0  0  0  0  0  0  0  0  0  0
    3.7950   -1.6190   29.9210 N   0  0  0  0  0  0  0  0  0  0  0  0
    4.7930   -1.0690   28.9780 C   0  0  0  0  0  0  0  0  0  0  0  0
    5.1630    0.3000   29.0170 N   0  0  0  0  0  0  0  0  0  0  0  0
    5.5250    0.9850   27.7930 C   0  0  0  0  0  0  0  0  0  0  0  0
    6.0270    2.3780   28.0700 C   0  0  0  0  0  0  0  0  0  0  0  0
    6.4080    2.7200   29.3810 N   0  0  0  0  0  0  0  0  0  0  0  0
    6.1390    1.8650   30.4060 C   0  0  0  0  0  0  0  0  0  0  0  0
    4.9250    1.0070   30.2610 C   0  0  0  0  0  0  0  0  0  0  0  0
    6.0170   -5.0020   23.6060 C   0  0  0  0  0  0  0  0  0  0  0  0
    6.6550   -5.3950   22.3240 C   0  0  0  0  0  0  0  0  0  0  0  0
  1  2  1  0
  2  3  2  0
  2  4  1  0
  4  5  1  0
  5  6  1  0
  6  7  1  0
  7  8  1  0
  8  9  2  0
  8 10  1  0
 10 11  1  0
 11 12  1  0
 12 13  2  0
 13 14  1  0
 14 15  2  0
 15 16  1  0
 12 17  1  0
 16 17  2  0
 17 18  1  0
 18 19  1  0
 19 20  1  0
 20 21  1  0
 21 22  1  0
 18 23  1  0
 22 23  1  0
  7 24  1  0
  4 25  1  0
 24 25  1  0
M  END
