piperidine-amides-34062-covalent
     RDKit          3D

 31 34  0  0  0  0  0  0  0  0999 V2000
    7.0940   -3.3270   19.2920 C   0  0  0  0  0  0  0  0  0  0  0  0
    6.4050   -4.1880   20.2620 C   0  0  0  0  0  0  0  0  0  0  0  0
    5.3320   -4.7460   19.9530 O   0  0  0  0  0  0  0  0  0  0  0  0
    6.9750   -4.4530   21.5080 N   0  0  0  0  0  0  0  0  0  0  0  0
    7.7170   -3.4150   22.1840 C   0  0  0  0  0  0  0  0  0  0  0  0
    6.7510   -2.8160   23.1910 C   0  0  0  0  0  0  0  0  0  0  0  0
    6.3500   -3.9510   24.1120 C   0  0  0  0  0  0  0  0  0  0  0  0
    5.3730   -3.4310   25.0720 C   0  0  0  0  0  0  0  0  0  0  0  0
    4.1560   -3.4870   24.8120 O   0  0  0  0  0  0  0  0  0  0  0  0
    5.8460   -2.8810   26.2570 N   0  0  0  0  0  0  0  0  0  0  0  0
    6.8610   -3.6090   26.9180 C   0  0  0  0  0  0  0  0  0  0  0  0
    8.1540   -3.4150   26.1570 C   0  0  0  0  0  0  0  0  0  0  0  0
    8.6360   -2.3340   25.4100 C   0  0  0  0  0  0  0  0  0  0  0  0
    9.9010   -2.3310   24.7920 C   0  0  0  0  0  0  0  0  0  0  0  0
   10.8020   -3.4010   24.8570 C   0  0  0  0  0  0  0  0  0  0  0  0
   10.4480   -4.5080   25.5380 C   0  0  0  0  0  0  0  0  0  0  0  0
    9.1350   -4.5230   26.1770 C   0  0  0  0  0  0  0  0  0  0  0  0
    9.4020   -5.9080   26.6730 C   0  0  0  0  0  0  0  0  0  0  0  0
    9.7640   -5.6790   27.8290 O   0  0  0  0  0  0  0  0  0  0  0  0
    8.7980   -4.8510   28.3770 C   0  0  0  0  0  0  0  0  0  0  0  0
    5.7520   -1.5120   26.7280 C   0  0  0  0  0  0  0  0  0  0  0  0
    6.2470   -0.3660   26.1230 N   0  0  0  0  0  0  0  0  0  0  0  0
    5.9190    0.7160   26.9160 C   0  0  0  0  0  0  0  0  0  0  0  0
    6.2340    2.0280   26.6700 C   0  0  0  0  0  0  0  0  0  0  0  0
    5.8380    3.1420   27.5850 C   0  0  0  0  0  0  0  0  0  0  0  0
    5.0710    2.6860   28.7840 C   0  0  0  0  0  0  0  0  0  0  0  0
    4.7550    1.2030   28.9950 C   0  0  0  0  0  0  0  0  0  0  0  0
    5.1960    0.2820   28.0480 C   0  0  0  0  0  0  0  0  0  0  0  0
    5.1100   -1.0480   27.9110 O   0  0  0  0  0  0  0  0  0  0  0  0
    5.7430   -5.1220   23.4010 C   0  0  0  0  0  0  0  0  0  0  0  0
    6.4670   -5.5190   22.3040 C   0  0  0  0  0  0  0  0  0  0  0  0
  1  2  1  0
  2  3  2  0
  2  4  1  0
  4  5  1  0
  5  6  1  0
  6  7  1  0
  7  8  1  0
  8  9  2  0
  8 10  1  0
 10 11  1  0
 11 12  1  0
 12 13  2  0
 13 14  1  0
 14 15  2  0
 15 16  1  0
 12 17  1  0
 16 17  2  0
 17 18  1  0
 18 19  1  0
 19 20  1  0
 10 21  1  0
 21 22  2  0
 22 23  1  0
 23 24  2  0
 24 25  1  0
 25 26  2  0
 26 27  1  0
 23 28  1  0
 27 28  2  0
 21 29  1  0
 28 29  1  0
  7 30  1  0
  4 31  1  0
 30 31  1  0
M  END
