piperidine-amides-33096-covalent
     RDKit          3D

 28 29  0  0  0  0  0  0  0  0999 V2000
    7.0230   -3.3840   19.4300 C   0  0  0  0  0  0  0  0  0  0  0  0
    6.4060   -4.2800   20.4260 C   0  0  0  0  0  0  0  0  0  0  0  0
    5.4300   -4.9560   20.0130 O   0  0  0  0  0  0  0  0  0  0  0  0
    6.9160   -4.4000   21.7600 N   0  0  0  0  0  0  0  0  0  0  0  0
    6.5930   -5.5650   22.5270 C   0  0  0  0  0  0  0  0  0  0  0  0
    6.0450   -5.2340   23.8380 C   0  0  0  0  0  0  0  0  0  0  0  0
    6.0180   -3.7780   24.0240 C   0  0  0  0  0  0  0  0  0  0  0  0
    5.3370   -3.2580   25.2830 C   0  0  0  0  0  0  0  0  0  0  0  0
    4.5790   -2.2900   25.1330 O   0  0  0  0  0  0  0  0  0  0  0  0
    5.4470   -3.7480   26.6140 N   0  0  0  0  0  0  0  0  0  0  0  0
    6.4370   -3.3970   27.4850 C   0  0  0  0  0  0  0  0  0  0  0  0
    6.8480   -4.4310   28.4190 C   0  0  0  0  0  0  0  0  0  0  0  0
    5.6910   -4.5670   29.3500 C   0  0  0  0  0  0  0  0  0  0  0  0
    4.5100   -4.6480   28.6550 C   0  0  1  0  0  0  0  0  0  0  0  0
    3.9110   -3.8270   29.8100 C   0  0  0  0  0  0  0  0  0  0  0  0
    4.1820   -2.4580   29.8010 O   0  0  0  0  0  0  0  0  0  0  0  0
    3.1250   -4.5260   30.7860 N   0  0  0  0  0  0  0  0  0  0  0  0
    2.2750   -3.5130   31.4460 C   0  0  0  0  0  0  0  0  0  0  0  0
    3.1710   -3.5380   32.6930 C   0  0  0  0  0  0  0  0  0  0  0  0
    2.5980   -3.3990   34.0840 C   0  0  0  0  0  0  0  0  0  0  0  0
    2.5480   -5.7190   30.5710 C   0  0  0  0  0  0  0  0  0  0  0  0
    1.9660   -6.4500   31.7960 C   0  0  0  0  0  0  0  0  0  0  0  0
    1.4360   -5.5060   32.6570 F   0  0  0  0  0  0  0  0  0  0  0  0
    2.7640   -7.2910   32.4760 F   0  0  0  0  0  0  0  0  0  0  0  0
    0.9090   -7.2930   31.4010 F   0  0  0  0  0  0  0  0  0  0  0  0
    4.2240   -3.9980   27.3270 C   0  0  0  0  0  0  0  0  0  0  0  0
    7.3440   -3.1540   23.7210 C   0  0  0  0  0  0  0  0  0  0  0  0
    7.6480   -3.2960   22.3630 C   0  0  0  0  0  0  0  0  0  0  0  0
  1  2  1  0
  2  3  2  0
  2  4  1  0
  4  5  1  0
  5  6  1  0
  6  7  1  0
  7  8  1  0
  8  9  2  0
  8 10  1  0
 10 11  1  0
 11 12  1  0
 12 13  1  0
 13 14  1  0
 14 15  1  1
 15 16  2  0
 15 17  1  0
 17 18  1  0
 18 19  1  0
 19 20  1  0
 17 21  1  0
 21 22  1  0
 22 23  1  0
 22 24  1  0
 22 25  1  0
 10 26  1  0
 14 26  1  0
  7 27  1  0
  4 28  1  0
 27 28  1  0
M  END
