piperidine-amides-28863-covalent
     RDKit          3D

 25 27  0  0  0  0  0  0  0  0999 V2000
    7.1200   -3.3530   19.3040 C   0  0  0  0  0  0  0  0  0  0  0  0
    6.3920   -4.1580   20.2740 C   0  0  0  0  0  0  0  0  0  0  0  0
    5.3230   -4.6860   19.9350 O   0  0  0  0  0  0  0  0  0  0  0  0
    6.9620   -4.3620   21.5490 N   0  0  0  0  0  0  0  0  0  0  0  0
    6.5530   -5.5080   22.3000 C   0  0  0  0  0  0  0  0  0  0  0  0
    5.6800   -5.0520   23.4340 C   0  0  0  0  0  0  0  0  0  0  0  0
    6.4600   -4.0140   24.2170 C   0  0  0  0  0  0  0  0  0  0  0  0
    5.6380   -3.4730   25.3460 C   0  0  0  0  0  0  0  0  0  0  0  0
    4.4700   -3.1700   25.1220 O   0  0  0  0  0  0  0  0  0  0  0  0
    6.3020   -3.3580   26.5450 N   0  0  0  0  0  0  0  0  0  0  0  0
    5.7440   -3.4660   27.8430 C   0  0  0  0  0  0  0  0  0  0  0  0
    5.9230   -4.6970   28.4730 C   0  0  1  0  0  0  0  0  0  0  0  0
    5.0530   -5.6900   28.1020 C   0  0  0  0  0  0  0  0  0  0  0  0
    4.4810   -6.4570   29.1230 C   0  0  0  0  0  0  0  0  0  0  0  0
    3.5190   -7.5290   28.7080 C   0  0  0  0  0  0  0  0  0  0  0  0
    3.1930   -7.7560   27.2220 C   0  0  0  0  0  0  0  0  0  0  0  0
    3.8150   -6.9370   26.1830 C   0  0  0  0  0  0  0  0  0  0  0  0
    3.4800   -7.1540   24.4800 Cl  0  0  0  0  0  0  0  0  0  0  0  0
    4.7440   -5.9200   26.7650 C   0  0  0  0  0  0  0  0  0  0  0  0
    7.0600   -5.2210   28.5010 O   0  0  0  0  0  0  0  0  0  0  0  0
    7.8500   -4.8530   27.4210 C   0  0  0  0  0  0  0  0  0  0  0  0
    7.6150   -3.5320   27.0520 C   0  0  1  0  0  0  0  0  0  0  0  0
    8.3600   -2.9150   26.0700 C   0  0  0  0  0  0  0  0  0  0  0  0
    6.9120   -2.8610   23.3840 C   0  0  0  0  0  0  0  0  0  0  0  0
    7.6880   -3.3110   22.1960 C   0  0  0  0  0  0  0  0  0  0  0  0
  1  2  1  0
  2  3  2  0
  2  4  1  0
  4  5  1  0
  5  6  1  0
  6  7  1  0
  7  8  1  0
  8  9  2  0
  8 10  1  0
 10 11  1  0
 11 12  1  0
 12 13  1  6
 13 14  2  0
 14 15  1  0
 15 16  2  0
 16 17  1  0
 17 18  1  0
 13 19  1  0
 17 19  2  0
 12 20  1  0
 20 21  1  0
 10 22  1  0
 21 22  1  0
 22 23  1  6
  7 24  1  0
  4 25  1  0
 24 25  1  0
M  END
