piperidine-amides-4249-covalent
     RDKit          3D

 26 27  0  0  0  0  0  0  0  0999 V2000
    7.1060   -3.2820   19.2110 C   0  0  0  0  0  0  0  0  0  0  0  0
    6.3630   -4.0300   20.2380 C   0  0  0  0  0  0  0  0  0  0  0  0
    5.2810   -4.5450   19.8820 O   0  0  0  0  0  0  0  0  0  0  0  0
    6.8730   -4.2090   21.5460 N   0  0  0  0  0  0  0  0  0  0  0  0
    6.5610   -5.4120   22.2330 C   0  0  0  0  0  0  0  0  0  0  0  0
    6.0040   -5.1410   23.5400 C   0  0  0  0  0  0  0  0  0  0  0  0
    6.1540   -3.7280   23.8980 C   0  0  0  0  0  0  0  0  0  0  0  0
    5.8390   -3.5030   25.3400 C   0  0  0  0  0  0  0  0  0  0  0  0
    4.6440   -3.4360   25.6740 O   0  0  0  0  0  0  0  0  0  0  0  0
    6.8480   -3.3680   26.3200 N   0  0  0  0  0  0  0  0  0  0  0  0
    6.6860   -3.0460   27.6920 C   0  0  0  0  0  0  0  0  0  0  0  0
    5.5730   -2.2010   28.1690 C   0  0  0  0  0  0  0  0  0  0  0  0
    6.1460   -1.1650   29.1500 C   0  0  0  0  0  0  0  0  0  0  0  0
    5.9730   -1.6260   30.4300 O   0  0  0  0  0  0  0  0  0  0  0  0
    6.6660   -0.0640   28.8950 O   0  0  0  0  0  0  0  0  0  0  0  0
    7.9030    0.1600   28.4760 C   0  0  0  0  0  0  0  0  0  0  0  0
    8.2200    1.6550   28.3970 C   0  0  0  0  0  0  0  0  0  0  0  0
    8.2720   -0.5550   27.1600 C   0  0  0  0  0  0  0  0  0  0  0  0
    8.9290   -0.0270   29.5320 C   0  0  0  0  0  0  0  0  0  0  0  0
    4.9270   -1.3760   27.0740 C   0  0  0  0  0  0  0  0  0  0  0  0
    3.4380   -1.6660   27.2510 C   0  0  0  0  0  0  0  0  0  0  0  0
    2.8610   -1.6140   28.5040 O   0  0  0  0  0  0  0  0  0  0  0  0
    3.3670   -2.4670   29.5380 C   0  0  0  0  0  0  0  0  0  0  0  0
    4.5710   -3.0990   28.9390 C   0  0  0  0  0  0  0  0  0  0  0  0
    7.4880   -3.1660   23.5280 C   0  0  0  0  0  0  0  0  0  0  0  0
    7.6860   -3.1770   22.1520 C   0  0  0  0  0  0  0  0  0  0  0  0
  1  2  1  0
  2  3  2  0
  2  4  1  0
  4  5  1  0
  5  6  1  0
  6  7  1  0
  7  8  1  0
  8  9  2  0
  8 10  1  0
 10 11  1  0
 11 12  1  0
 12 13  1  0
 13 14  2  0
 13 15  1  0
 16 15  1  0
 16 17  1  0
 16 18  1  0
 16 19  1  0
 12 20  1  0
 20 21  1  0
 21 22  1  0
 22 23  1  0
 12 24  1  0
 23 24  1  0
  7 25  1  0
  4 26  1  0
 25 26  1  0
M  END
