piperidine-amides-29898-covalent
     RDKit          3D

 26 29  0  0  0  0  0  0  0  0999 V2000
    7.0430   -3.3490   19.4340 C   0  0  0  0  0  0  0  0  0  0  0  0
    6.3880   -4.2250   20.4000 C   0  0  0  0  0  0  0  0  0  0  0  0
    5.4440   -4.9240   20.0140 O   0  0  0  0  0  0  0  0  0  0  0  0
    6.8560   -4.3130   21.7740 N   0  0  0  0  0  0  0  0  0  0  0  0
    6.5690   -5.5000   22.5500 C   0  0  0  0  0  0  0  0  0  0  0  0
    6.1020   -5.1440   23.9510 C   0  0  0  0  0  0  0  0  0  0  0  0
    5.8840   -3.6400   24.0070 C   0  0  0  0  0  0  0  0  0  0  0  0
    5.0280   -3.1580   25.1760 C   0  0  0  0  0  0  0  0  0  0  0  0
    3.8110   -3.0370   24.9870 O   0  0  0  0  0  0  0  0  0  0  0  0
    5.4520   -2.8270   26.5100 N   0  0  0  0  0  0  0  0  0  0  0  0
    4.3970   -2.6940   27.4950 C   0  0  0  0  0  0  0  0  0  0  0  0
    4.2900   -4.0020   28.2840 C   0  0  0  0  0  0  0  0  0  0  0  0
    5.0280   -5.0760   27.9870 N   0  0  0  0  0  0  0  0  0  0  0  0
    5.0230   -5.9350   29.0200 C   0  0  0  0  0  0  0  0  0  0  0  0
    6.2280   -6.1400   29.6060 N   0  0  0  0  0  0  0  0  0  0  0  0
    5.8950   -7.2590   30.8640 S   0  0  0  0  0  0  0  0  0  0  0  0
    4.2210   -7.3140   30.4650 C   0  0  0  0  0  0  0  0  0  0  0  0
    3.3150   -8.0920   31.1570 C   0  0  0  0  0  0  0  0  0  0  0  0
    1.9320   -8.0490   30.7120 C   0  0  0  0  0  0  0  0  0  0  0  0
    1.6010   -7.2490   29.6440 C   0  0  0  0  0  0  0  0  0  0  0  0
    2.5600   -6.4950   29.0000 C   0  0  0  0  0  0  0  0  0  0  0  0
    3.8790   -6.5480   29.4370 C   0  0  0  0  0  0  0  0  0  0  0  0
    6.1790   -4.4980   27.6150 C   0  0  0  0  0  0  0  0  0  0  0  0
    6.6070   -3.3490   26.9720 C   0  0  0  0  0  0  0  0  0  0  0  0
    7.1780   -2.9230   23.7620 C   0  0  0  0  0  0  0  0  0  0  0  0
    7.5870   -3.2110   22.3420 C   0  0  0  0  0  0  0  0  0  0  0  0
  1  2  1  0
  2  3  2  0
  2  4  1  0
  4  5  1  0
  5  6  1  0
  6  7  1  0
  7  8  1  0
  8  9  2  0
  8 10  1  0
 10 11  1  0
 11 12  1  0
 12 13  1  0
 13 14  1  0
 14 15  2  0
 15 16  1  0
 16 17  1  0
 17 18  1  0
 18 19  2  0
 19 20  1  0
 20 21  2  0
 14 22  1  0
 17 22  2  0
 21 22  1  0
 13 23  1  0
 10 24  1  0
 23 24  1  0
  7 25  1  0
  4 26  1  0
 25 26  1  0
M  END
