piperidine-amides-963-covalent
     RDKit          3D

 24 26  0  0  0  0  0  0  0  0999 V2000
    7.1470   -3.3350   19.2980 C   0  0  0  0  0  0  0  0  0  0  0  0
    6.3860   -4.1480   20.2730 C   0  0  0  0  0  0  0  0  0  0  0  0
    5.3130   -4.6680   19.9300 O   0  0  0  0  0  0  0  0  0  0  0  0
    6.9490   -4.3540   21.5450 N   0  0  0  0  0  0  0  0  0  0  0  0
    7.6490   -3.3010   22.2240 C   0  0  0  0  0  0  0  0  0  0  0  0
    6.6520   -2.7640   23.2430 C   0  0  0  0  0  0  0  0  0  0  0  0
    6.4160   -3.8520   24.2350 C   0  0  0  0  0  0  0  0  0  0  0  0
    5.7320   -3.3260   25.4290 C   0  0  0  0  0  0  0  0  0  0  0  0
    4.5150   -3.1450   25.3140 O   0  0  0  0  0  0  0  0  0  0  0  0
    6.4280   -3.0520   26.6060 N   0  0  0  0  0  0  0  0  0  0  0  0
    6.4400   -1.7840   27.2340 C   0  0  0  0  0  0  0  0  0  0  0  0
    7.0000   -1.6060   28.4880 C   0  0  0  0  0  0  0  0  0  0  0  0
    7.0590   -0.4090   29.2080 C   0  0  0  0  0  0  0  0  0  0  0  0
    6.5440    0.7650   28.7210 C   0  0  0  0  0  0  0  0  0  0  0  0
    5.9080    0.7680   27.3900 C   0  0  0  0  0  0  0  0  0  0  0  0
    5.2670    1.9460   26.6390 C   0  0  0  0  0  0  0  0  0  0  0  0
    4.1120    1.8060   25.8260 N   0  0  0  0  0  0  0  0  0  0  0  0
    3.7200    3.0150   25.2410 C   0  0  0  0  0  0  0  0  0  0  0  0
    2.6200    3.0980   24.4120 C   0  0  0  0  0  0  0  0  0  0  0  0
    4.4800    4.2570   25.4990 C   0  0  0  0  0  0  0  0  0  0  0  0
    5.7150    3.6690   26.5510 S   0  0  0  0  0  0  0  0  0  0  0  0
    5.8750   -0.5280   26.6740 C   0  0  0  0  0  0  0  0  0  0  0  0
    5.7170   -4.9610   23.5600 C   0  0  0  0  0  0  0  0  0  0  0  0
    6.5110   -5.4580   22.3410 C   0  0  0  0  0  0  0  0  0  0  0  0
  1  2  1  0
  2  3  2  0
  2  4  1  0
  4  5  1  0
  5  6  1  0
  6  7  1  0
  7  8  1  0
  8  9  2  0
  8 10  1  0
 10 11  1  0
 11 12  2  0
 12 13  1  0
 13 14  2  0
 14 15  1  0
 15 16  1  0
 16 17  2  0
 17 18  1  0
 18 19  1  0
 18 20  2  0
 16 21  1  0
 20 21  1  0
 11 22  1  0
 15 22  2  0
  7 23  1  0
  4 24  1  0
 23 24  1  0
M  END
