piperidine-amides-12056-covalent
     RDKit          3D

 25 27  0  0  0  0  0  0  0  0999 V2000
    7.0500   -3.3320   19.3930 C   0  0  0  0  0  0  0  0  0  0  0  0
    6.3740   -4.1760   20.3700 C   0  0  0  0  0  0  0  0  0  0  0  0
    5.4380   -4.8920   20.0040 O   0  0  0  0  0  0  0  0  0  0  0  0
    6.8230   -4.2000   21.7460 N   0  0  0  0  0  0  0  0  0  0  0  0
    6.6070   -5.3860   22.5430 C   0  0  0  0  0  0  0  0  0  0  0  0
    5.9660   -5.0100   23.8520 C   0  0  0  0  0  0  0  0  0  0  0  0
    6.1770   -3.5160   24.0430 C   0  0  0  0  0  0  0  0  0  0  0  0
    5.7840   -3.0790   25.4240 C   0  0  0  0  0  0  0  0  0  0  0  0
    4.6290   -3.2670   25.8530 O   0  0  0  0  0  0  0  0  0  0  0  0
    6.7350   -2.4280   26.2690 N   0  0  0  0  0  0  0  0  0  0  0  0
    6.3930   -1.1640   26.9210 C   0  0  0  0  0  0  0  0  0  0  0  0
    5.4620   -0.2740   26.1380 C   0  0  0  0  0  0  0  0  0  0  0  0
    5.0800    0.9510   26.6780 C   0  0  0  0  0  0  0  0  0  0  0  0
    4.1900    1.7390   25.8810 N   0  0  0  0  0  0  0  0  0  0  0  0
    3.9420    3.0650   26.3820 C   0  0  0  0  0  0  0  0  0  0  0  0
    3.0160    3.0530   27.4010 C   0  0  0  0  0  0  0  0  0  0  0  0
    2.2690    2.0670   27.4340 O   0  0  0  0  0  0  0  0  0  0  0  0
    2.3280    0.9280   26.6680 C   0  0  0  0  0  0  0  0  0  0  0  0
    2.9240    1.1960   25.4540 C   0  0  0  0  0  0  0  0  0  0  0  0
    5.5120    1.3930   27.8910 C   0  0  0  0  0  0  0  0  0  0  0  0
    6.3470    0.6300   28.6250 C   0  0  0  0  0  0  0  0  0  0  0  0
    6.8120   -0.6500   28.1810 C   0  0  0  0  0  0  0  0  0  0  0  0
    7.9520   -1.4330   29.4330 Br  0  0  0  0  0  0  0  0  0  0  0  0
    7.5810   -3.1120   23.6510 C   0  0  0  0  0  0  0  0  0  0  0  0
    7.6660   -3.1340   22.2540 C   0  0  0  0  0  0  0  0  0  0  0  0
  1  2  1  0
  2  3  2  0
  2  4  1  0
  4  5  1  0
  5  6  1  0
  6  7  1  0
  7  8  1  0
  8  9  2  0
  8 10  1  0
 10 11  1  0
 11 12  2  0
 12 13  1  0
 13 14  1  0
 14 15  1  0
 15 16  1  0
 16 17  1  0
 17 18  1  0
 14 19  1  0
 18 19  1  0
 13 20  2  0
 20 21  1  0
 11 22  1  0
 21 22  2  0
 22 23  1  0
  7 24  1  0
  4 25  1  0
 24 25  1  0
M  END
