piperidine-amides-13531-covalent
     RDKit          3D

 22 24  0  0  0  0  0  0  0  0999 V2000
    7.1580   -3.2990   19.2350 C   0  0  0  0  0  0  0  0  0  0  0  0
    6.4330   -4.0970   20.2580 C   0  0  0  0  0  0  0  0  0  0  0  0
    5.3710   -4.6630   19.9400 O   0  0  0  0  0  0  0  0  0  0  0  0
    7.0010   -4.2360   21.5450 N   0  0  0  0  0  0  0  0  0  0  0  0
    7.8110   -3.1960   22.1180 C   0  0  0  0  0  0  0  0  0  0  0  0
    6.9290   -2.5160   23.1550 C   0  0  0  0  0  0  0  0  0  0  0  0
    6.4230   -3.5600   24.1000 C   0  0  0  0  0  0  0  0  0  0  0  0
    5.5450   -2.9450   25.1150 C   0  0  0  0  0  0  0  0  0  0  0  0
    4.3600   -3.3010   25.0880 O   0  0  0  0  0  0  0  0  0  0  0  0
    6.0250   -2.0150   26.0460 N   0  0  0  0  0  0  0  0  0  0  0  0
    5.7740   -2.1360   27.4250 C   0  0  2  0  0  0  0  0  0  0  0  0
    5.4530   -1.1900   28.3220 C   0  0  0  0  0  0  0  0  0  0  0  0
    6.2340   -1.7860   29.2270 C   0  0  2  0  0  0  0  0  0  0  0  0
    7.0820   -0.9880   29.9770 O   0  0  0  0  0  0  0  0  0  0  0  0
    6.7650   -2.7130   28.3200 C   0  0  1  0  0  0  0  0  0  0  0  0
    6.9070   -4.0290   28.5250 N   0  0  0  0  0  0  0  0  0  0  0  0
    6.1300   -4.9510   29.1450 C   0  0  0  0  0  0  0  0  0  0  0  0
    6.8340   -6.2990   29.0090 C   0  0  0  0  0  0  0  0  0  0  0  0
    8.0400   -5.8110   28.2340 C   0  0  0  0  0  0  0  0  0  0  0  0
    8.0300   -4.5100   27.9860 N   0  0  0  0  0  0  0  0  0  0  0  0
    5.6170   -4.6620   23.3740 C   0  0  0  0  0  0  0  0  0  0  0  0
    6.4920   -5.2980   22.3610 C   0  0  0  0  0  0  0  0  0  0  0  0
  1  2  1  0
  2  3  2  0
  2  4  1  0
  4  5  1  0
  5  6  1  0
  6  7  1  0
  7  8  1  0
  8  9  2  0
  8 10  1  0
 11 10  1  6
 11 12  1  0
 12 13  1  0
 13 14  1  6
 11 15  1  0
 13 15  1  0
 15 16  1  1
 16 17  1  0
 17 18  2  0
 18 19  1  0
 16 20  1  0
 19 20  2  0
  7 21  1  0
  4 22  1  0
 21 22  1  0
M  END
