piperidine-amides-27454-covalent
     RDKit          3D

 23 25  0  0  0  0  0  0  0  0999 V2000
    7.0940   -3.3210   19.2880 C   0  0  0  0  0  0  0  0  0  0  0  0
    6.3670   -4.1000   20.2980 C   0  0  0  0  0  0  0  0  0  0  0  0
    5.3100   -4.6680   19.9210 O   0  0  0  0  0  0  0  0  0  0  0  0
    6.8630   -4.2330   21.5960 N   0  0  0  0  0  0  0  0  0  0  0  0
    6.7000   -5.4690   22.3240 C   0  0  0  0  0  0  0  0  0  0  0  0
    6.0560   -5.1700   23.6430 C   0  0  0  0  0  0  0  0  0  0  0  0
    6.3000   -3.7570   24.0890 C   0  0  0  0  0  0  0  0  0  0  0  0
    6.0750   -3.6410   25.5390 C   0  0  0  0  0  0  0  0  0  0  0  0
    5.2330   -2.7940   25.9150 O   0  0  0  0  0  0  0  0  0  0  0  0
    6.7180   -4.4590   26.5070 N   0  0  0  0  0  0  0  0  0  0  0  0
    5.9270   -5.5550   26.9850 C   0  0  0  0  0  0  0  0  0  0  0  0
    4.9960   -5.1310   28.1140 C   0  0  0  0  0  0  0  0  0  0  0  0
    5.1400   -3.9550   28.7510 C   0  0  0  0  0  0  0  0  0  0  0  0
    4.2480   -3.2890   29.5750 C   0  0  0  0  0  0  0  0  0  0  0  0
    4.6110   -2.0540   30.1350 C   0  0  0  0  0  0  0  0  0  0  0  0
    5.8500   -1.4630   29.9020 C   0  0  0  0  0  0  0  0  0  0  0  0
    6.2800    0.0800   30.6270 Cl  0  0  0  0  0  0  0  0  0  0  0  0
    6.7430   -2.1140   29.0840 C   0  0  0  0  0  0  0  0  0  0  0  0
    8.3000   -1.4990   28.7260 Cl  0  0  0  0  0  0  0  0  0  0  0  0
    6.3270   -3.3940   28.5030 C   0  0  0  0  0  0  0  0  0  0  0  0
    7.4210   -3.9060   27.6020 C   0  0  0  0  0  0  0  0  0  0  0  0
    7.6850   -3.2700   23.6790 C   0  0  0  0  0  0  0  0  0  0  0  0
    7.6680   -3.1440   22.1680 C   0  0  0  0  0  0  0  0  0  0  0  0
  1  2  1  0
  2  3  2  0
  2  4  1  0
  4  5  1  0
  5  6  1  0
  6  7  1  0
  7  8  1  0
  8  9  2  0
  8 10  1  0
 10 11  1  0
 11 12  1  0
 12 13  1  0
 13 14  2  0
 14 15  1  0
 15 16  2  0
 16 17  1  0
 16 18  1  0
 18 19  1  0
 13 20  1  0
 18 20  2  0
 10 21  1  0
 20 21  1  0
  7 22  1  0
  4 23  1  0
 22 23  1  0
M  END
