piperidine-amides-4482-covalent
     RDKit          3D

 25 27  0  0  0  0  0  0  0  0999 V2000
    7.0960   -3.2620   19.2550 C   0  0  0  0  0  0  0  0  0  0  0  0
    6.3550   -4.0390   20.2730 C   0  0  0  0  0  0  0  0  0  0  0  0
    5.2910   -4.5660   19.8930 O   0  0  0  0  0  0  0  0  0  0  0  0
    6.8590   -4.2100   21.5730 N   0  0  0  0  0  0  0  0  0  0  0  0
    6.4950   -5.3430   22.3390 C   0  0  0  0  0  0  0  0  0  0  0  0
    5.8350   -5.0220   23.6130 C   0  0  0  0  0  0  0  0  0  0  0  0
    6.1760   -3.7290   24.2820 C   0  0  0  0  0  0  0  0  0  0  0  0
    4.9630   -3.3200   25.0560 C   0  0  0  0  0  0  0  0  0  0  0  0
    4.0290   -4.1320   25.0930 O   0  0  0  0  0  0  0  0  0  0  0  0
    4.7590   -2.1080   25.7610 N   0  0  0  0  0  0  0  0  0  0  0  0
    4.3210   -2.1900   27.1820 C   0  0  1  0  0  0  0  0  0  0  0  0
    3.9440   -3.6220   27.4830 C   0  0  0  0  0  0  0  0  0  0  0  0
    5.5340   -2.0130   27.8280 C   0  0  0  0  0  0  0  0  0  0  0  0
    6.2310   -1.2090   28.8140 N   0  0  0  0  0  0  0  0  0  0  0  0
    7.4420   -1.7510   28.8220 O   0  0  0  0  0  0  0  0  0  0  0  0
    7.4120   -2.8030   27.8850 C   0  0  0  0  0  0  0  0  0  0  0  0
    8.1110   -3.7420   27.3430 C   0  0  0  0  0  0  0  0  0  0  0  0
    8.4220   -3.5580   26.0200 C   0  0  0  0  0  0  0  0  0  0  0  0
    9.1250   -4.5070   25.3500 C   0  0  0  0  0  0  0  0  0  0  0  0
    9.5180   -5.6430   25.9950 C   0  0  0  0  0  0  0  0  0  0  0  0
    9.1840   -5.7820   27.3030 C   0  0  0  0  0  0  0  0  0  0  0  0
    8.4570   -4.8130   28.0210 C   0  0  0  0  0  0  0  0  0  0  0  0
    6.2900   -2.8590   27.3880 N   0  0  0  0  0  0  0  0  0  0  0  0
    6.6230   -2.6280   23.3610 C   0  0  0  0  0  0  0  0  0  0  0  0
    7.5320   -3.1490   22.2800 C   0  0  0  0  0  0  0  0  0  0  0  0
  1  2  1  0
  2  3  2  0
  2  4  1  0
  4  5  1  0
  5  6  1  0
  6  7  1  0
  7  8  1  0
  8  9  2  0
  8 10  1  0
 10 11  1  0
 11 12  1  6
 11 13  1  0
 13 14  2  0
 14 15  1  0
 15 16  1  0
 16 17  1  0
 17 18  2  0
 18 19  1  0
 19 20  2  0
 20 21  1  0
 17 22  1  0
 21 22  2  0
 13 23  1  0
 16 23  2  0
  7 24  1  0
  4 25  1  0
 24 25  1  0
M  END
