piperidine-amides-27604-covalent
     RDKit          3D

 26 28  0  0  0  0  0  0  0  0999 V2000
    7.0980   -3.2550   19.1870 C   0  0  0  0  0  0  0  0  0  0  0  0
    6.3370   -3.9970   20.1970 C   0  0  0  0  0  0  0  0  0  0  0  0
    5.2340   -4.4780   19.8420 O   0  0  0  0  0  0  0  0  0  0  0  0
    6.8580   -4.1910   21.4670 N   0  0  0  0  0  0  0  0  0  0  0  0
    6.4680   -5.3440   22.2390 C   0  0  0  0  0  0  0  0  0  0  0  0
    5.6510   -4.8470   23.3970 C   0  0  0  0  0  0  0  0  0  0  0  0
    6.4350   -3.8360   24.1830 C   0  0  0  0  0  0  0  0  0  0  0  0
    5.7250   -3.3820   25.4030 C   0  0  0  0  0  0  0  0  0  0  0  0
    4.4720   -3.4300   25.4060 O   0  0  0  0  0  0  0  0  0  0  0  0
    6.3890   -2.8880   26.5540 N   0  0  0  0  0  0  0  0  0  0  0  0
    6.3520   -3.6010   27.8160 C   0  0  0  0  0  0  0  0  0  0  0  0
    5.7390   -4.9940   27.7290 C   0  0  0  0  0  0  0  0  0  0  0  0
    5.9420   -6.0950   28.5640 C   0  0  0  0  0  0  0  0  0  0  0  0
    5.1820   -7.1290   28.1160 C   0  0  0  0  0  0  0  0  0  0  0  0
    4.5140   -6.7050   27.0240 C   0  0  0  0  0  0  0  0  0  0  0  0
    4.8980   -5.3960   26.8420 O   0  0  0  0  0  0  0  0  0  0  0  0
    6.7720   -1.5060   26.5760 C   0  0  0  0  0  0  0  0  0  0  0  0
    5.8380   -0.6870   25.9740 C   0  0  0  0  0  0  0  0  0  0  0  0
    6.1680   -0.1350   24.5830 C   0  0  0  0  0  0  0  0  0  0  0  0
    5.0800    0.7540   23.9990 C   0  0  0  0  0  0  0  0  0  0  0  0
    3.8290    1.0330   24.7500 C   0  0  0  0  0  0  0  0  0  0  0  0
    3.6460    0.4250   26.1020 C   0  0  0  0  0  0  0  0  0  0  0  0
    4.6280   -0.3840   26.6430 C   0  0  0  0  0  0  0  0  0  0  0  0
    4.3220   -0.8830   27.9150 O   0  0  0  0  0  0  0  0  0  0  0  0
    6.7520   -2.6630   23.2870 C   0  0  0  0  0  0  0  0  0  0  0  0
    7.6230   -3.1650   22.1530 C   0  0  0  0  0  0  0  0  0  0  0  0
  1  2  1  0
  2  3  2  0
  2  4  1  0
  4  5  1  0
  5  6  1  0
  6  7  1  0
  7  8  1  0
  8  9  2  0
  8 10  1  0
 10 11  1  0
 11 12  1  0
 12 13  2  0
 13 14  1  0
 14 15  2  0
 12 16  1  0
 15 16  1  0
 10 17  1  0
 17 18  1  0
 18 19  2  0
 19 20  1  0
 20 21  2  0
 21 22  1  0
 18 23  1  0
 22 23  2  0
 23 24  1  0
  7 25  1  0
  4 26  1  0
 25 26  1  0
M  END
