piperidine-amides-27385-covalent
     RDKit          3D

 26 29  0  0  0  0  0  0  0  0999 V2000
    7.0400   -3.3380   19.3070 C   0  0  0  0  0  0  0  0  0  0  0  0
    6.3830   -4.1620   20.3260 C   0  0  0  0  0  0  0  0  0  0  0  0
    5.3600   -4.8020   19.9660 O   0  0  0  0  0  0  0  0  0  0  0  0
    6.9150   -4.2520   21.6160 N   0  0  0  0  0  0  0  0  0  0  0  0
    6.7570   -5.4710   22.3820 C   0  0  0  0  0  0  0  0  0  0  0  0
    6.2030   -5.1200   23.7330 C   0  0  0  0  0  0  0  0  0  0  0  0
    6.1540   -3.6290   23.9160 C   0  0  0  0  0  0  0  0  0  0  0  0
    5.6940   -3.2220   25.2600 C   0  0  0  0  0  0  0  0  0  0  0  0
    4.8850   -2.2770   25.3290 O   0  0  0  0  0  0  0  0  0  0  0  0
    6.0800   -3.8440   26.4510 N   0  0  0  0  0  0  0  0  0  0  0  0
    5.5900   -5.1560   26.6580 C   0  0  0  0  0  0  0  0  0  0  0  0
    5.8210   -5.5760   28.0760 C   0  0  0  0  0  0  0  0  0  0  0  0
    5.4420   -4.8130   29.0990 C   0  0  0  0  0  0  0  0  0  0  0  0
    4.1400   -4.3440   29.2440 C   0  0  0  0  0  0  0  0  0  0  0  0
    2.9670   -5.0010   28.9110 C   0  0  0  0  0  0  0  0  0  0  0  0
    1.9100   -4.2290   29.1940 N   0  0  0  0  0  0  0  0  0  0  0  0
    2.3700   -3.0800   29.7060 C   0  0  0  0  0  0  0  0  0  0  0  0
    1.6550   -1.9950   30.1390 C   0  0  0  0  0  0  0  0  0  0  0  0
    2.3170   -0.7640   30.6960 C   0  0  0  0  0  0  0  0  0  0  0  0
    3.8410   -0.9160   30.7000 C   0  0  0  0  0  0  0  0  0  0  0  0
    4.5530   -2.0670   30.2400 N   0  0  0  0  0  0  0  0  0  0  0  0
    3.7400   -3.1130   29.7540 C   0  0  0  0  0  0  0  0  0  0  0  0
    6.5120   -3.8060   28.7430 C   0  0  0  0  0  0  0  0  0  0  0  0
    6.2810   -3.0500   27.6010 C   0  0  0  0  0  0  0  0  0  0  0  0
    7.5390   -3.0980   23.6430 C   0  0  0  0  0  0  0  0  0  0  0  0
    7.7870   -3.2050   22.1500 C   0  0  0  0  0  0  0  0  0  0  0  0
  1  2  1  0
  2  3  2  0
  2  4  1  0
  4  5  1  0
  5  6  1  0
  6  7  1  0
  7  8  1  0
  8  9  2  0
  8 10  1  0
 10 11  1  0
 11 12  1  0
 12 13  1  0
 13 14  1  0
 14 15  2  0
 15 16  1  0
 16 17  1  0
 17 18  1  0
 18 19  2  0
 19 20  1  0
 20 21  2  0
 14 22  1  0
 17 22  2  0
 21 22  1  0
 13 23  1  0
 10 24  1  0
 23 24  1  0
  7 25  1  0
  4 26  1  0
 25 26  1  0
M  END
