piperidine-amides-15075-covalent
     RDKit          3D

 19 20  0  0  0  0  0  0  0  0999 V2000
    7.1090   -3.3010   19.2400 C   0  0  0  0  0  0  0  0  0  0  0  0
    6.3460   -4.0480   20.2370 C   0  0  0  0  0  0  0  0  0  0  0  0
    5.2690   -4.5620   19.8840 O   0  0  0  0  0  0  0  0  0  0  0  0
    6.8580   -4.2180   21.5440 N   0  0  0  0  0  0  0  0  0  0  0  0
    7.6400   -3.1620   22.1280 C   0  0  0  0  0  0  0  0  0  0  0  0
    6.8970   -2.5690   23.2840 C   0  0  0  0  0  0  0  0  0  0  0  0
    6.4990   -3.7320   24.1630 C   0  0  0  0  0  0  0  0  0  0  0  0
    5.7070   -3.2240   25.3410 C   0  0  0  0  0  0  0  0  0  0  0  0
    4.4840   -3.2110   25.2170 O   0  0  0  0  0  0  0  0  0  0  0  0
    6.4080   -2.8060   26.4810 N   0  0  0  0  0  0  0  0  0  0  0  0
    6.2250   -3.4140   27.7630 C   0  0  0  0  0  0  0  0  0  0  0  0
    6.9710   -4.5710   27.9880 C   0  0  0  0  0  0  0  0  0  0  0  0
    8.2410   -4.6010   27.5410 C   0  0  1  0  0  0  0  0  0  0  0  0
    8.9620   -5.7780   27.3880 C   0  0  0  0  0  0  0  0  0  0  0  0
    9.1550   -5.4140   25.9870 C   0  0  2  0  0  0  0  0  0  0  0  0
   10.4800   -5.4780   25.7250 O   0  0  0  0  0  0  0  0  0  0  0  0
    8.2850   -4.1870   26.0620 C   0  0  0  0  0  0  0  0  0  0  0  0
    5.6430   -4.7540   23.4900 C   0  0  0  0  0  0  0  0  0  0  0  0
    6.3380   -5.3140   22.2830 C   0  0  0  0  0  0  0  0  0  0  0  0
  1  2  1  0
  2  3  2  0
  2  4  1  0
  4  5  1  0
  5  6  1  0
  6  7  1  0
  7  8  1  0
  8  9  2  0
  8 10  1  0
 10 11  1  0
 11 12  1  0
 13 12  1  6
 13 14  1  0
 14 15  1  0
 15 16  1  1
 13 17  1  0
 15 17  1  0
  7 18  1  0
  4 19  1  0
 18 19  1  0
M  END
