piperidine-amides-7191-covalent
     RDKit          3D

 21 22  0  0  0  0  0  0  0  0999 V2000
    7.0180   -3.3070   19.2930 C   0  0  0  0  0  0  0  0  0  0  0  0
    6.3590   -4.1220   20.3220 C   0  0  0  0  0  0  0  0  0  0  0  0
    5.3430   -4.7640   19.9540 O   0  0  0  0  0  0  0  0  0  0  0  0
    6.8590   -4.2070   21.6300 N   0  0  0  0  0  0  0  0  0  0  0  0
    6.7060   -5.4180   22.4050 C   0  0  0  0  0  0  0  0  0  0  0  0
    6.1400   -5.0650   23.7570 C   0  0  0  0  0  0  0  0  0  0  0  0
    6.0970   -3.5740   23.9690 C   0  0  0  0  0  0  0  0  0  0  0  0
    5.6870   -3.1940   25.3460 C   0  0  0  0  0  0  0  0  0  0  0  0
    4.8030   -2.3210   25.4460 O   0  0  0  0  0  0  0  0  0  0  0  0
    6.2030   -3.7520   26.5370 N   0  0  0  0  0  0  0  0  0  0  0  0
    5.5420   -4.8810   27.1580 C   0  0  1  0  0  0  0  0  0  0  0  0
    6.4770   -5.7290   28.0110 C   0  0  0  0  0  0  0  0  0  0  0  0
    4.3480   -4.5000   27.9530 C   0  0  0  0  0  0  0  0  0  0  0  0
    4.1480   -4.8910   29.2630 C   0  0  0  0  0  0  0  0  0  0  0  0
    3.0090   -4.5090   29.9550 C   0  0  0  0  0  0  0  0  0  0  0  0
    2.0410   -3.7240   29.3560 C   0  0  0  0  0  0  0  0  0  0  0  0
    0.5840   -3.2150   30.1900 Cl  0  0  0  0  0  0  0  0  0  0  0  0
    2.2580   -3.3540   28.0820 N   0  0  0  0  0  0  0  0  0  0  0  0
    3.3620   -3.7170   27.3850 C   0  0  0  0  0  0  0  0  0  0  0  0
    7.4550   -2.9580   23.6430 C   0  0  0  0  0  0  0  0  0  0  0  0
    7.6920   -3.1400   22.1460 C   0  0  0  0  0  0  0  0  0  0  0  0
  1  2  1  0
  2  3  2  0
  2  4  1  0
  4  5  1  0
  5  6  1  0
  6  7  1  0
  7  8  1  0
  8  9  2  0
  8 10  1  0
 10 11  1  0
 11 12  1  1
 11 13  1  0
 13 14  2  0
 14 15  1  0
 15 16  2  0
 16 17  1  0
 16 18  1  0
 13 19  1  0
 18 19  2  0
  7 20  1  0
  4 21  1  0
 20 21  1  0
M  END
