piperidine-amides-31653-covalent
     RDKit          3D

 28 30  0  0  0  0  0  0  0  0999 V2000
    7.0620   -3.3640   19.4660 C   0  0  0  0  0  0  0  0  0  0  0  0
    6.3850   -4.2320   20.4090 C   0  0  0  0  0  0  0  0  0  0  0  0
    5.4050   -4.9280   19.9920 O   0  0  0  0  0  0  0  0  0  0  0  0
    6.8000   -4.3460   21.7550 N   0  0  0  0  0  0  0  0  0  0  0  0
    6.4420   -5.5660   22.5130 C   0  0  0  0  0  0  0  0  0  0  0  0
    5.4390   -4.9470   23.5730 C   0  0  0  0  0  0  0  0  0  0  0  0
    6.3070   -4.1740   24.5430 C   0  0  0  0  0  0  0  0  0  0  0  0
    5.4720   -3.0820   25.3820 C   0  0  0  0  0  0  0  0  0  0  0  0
    5.3040   -2.1240   24.6540 O   0  0  0  0  0  0  0  0  0  0  0  0
    5.1280   -3.4070   26.6020 N   0  0  0  0  0  0  0  0  0  0  0  0
    4.2860   -3.5500   27.6430 C   0  0  0  0  0  0  0  0  0  0  0  0
    4.4040   -3.9570   28.9250 C   0  0  0  0  0  0  0  0  0  0  0  0
    5.2350   -5.1110   28.7640 N   0  0  0  0  0  0  0  0  0  0  0  0
    4.8340   -6.2670   28.1770 C   0  0  0  0  0  0  0  0  0  0  0  0
    3.3600   -6.1740   28.2580 C   0  0  0  0  0  0  0  0  0  0  0  0
    2.7800   -6.1250   26.9130 C   0  0  0  0  0  0  0  0  0  0  0  0
    1.3670   -6.0370   27.1370 C   0  0  0  0  0  0  0  0  0  0  0  0
    0.4210   -5.9870   28.2810 C   0  0  0  0  0  0  0  0  0  0  0  0
    1.3580   -6.0580   29.5590 C   0  0  0  0  0  0  0  0  0  0  0  0
    2.8940   -6.1560   29.5770 C   0  0  0  0  0  0  0  0  0  0  0  0
    3.6200   -6.2120   30.5960 O   0  0  0  0  0  0  0  0  0  0  0  0
    4.4260   -7.3280   30.8700 C   0  0  0  0  0  0  0  0  0  0  0  0
    5.7900   -7.2800   30.7440 C   0  0  0  0  0  0  0  0  0  0  0  0
    6.3920   -4.7870   28.0360 C   0  0  0  0  0  0  0  0  0  0  0  0
    6.3340   -3.5120   27.3930 C   0  0  2  0  0  0  0  0  0  0  0  0
    6.4760   -2.4120   28.2460 C   0  0  0  0  0  0  0  0  0  0  0  0
    7.5830   -3.6410   23.9530 C   0  0  0  0  0  0  0  0  0  0  0  0
    7.5400   -3.3480   22.4750 C   0  0  0  0  0  0  0  0  0  0  0  0
  1  2  1  0
  2  3  2  0
  2  4  1  0
  4  5  1  0
  5  6  1  0
  6  7  1  0
  7  8  1  0
  8  9  2  0
  8 10  1  0
 10 11  1  0
 11 12  1  0
 12 13  1  0
 13 14  1  0
 14 15  1  0
 15 16  2  0
 16 17  1  0
 17 18  2  0
 18 19  1  0
 15 20  1  0
 19 20  2  0
 20 21  1  0
 21 22  1  0
 22 23  1  0
 13 24  1  0
 10 25  1  0
 24 25  1  0
 25 26  1  1
  7 27  1  0
  4 28  1  0
 27 28  1  0
M  END
