piperidine-amides-8288-covalent
     RDKit          3D

 25 26  0  0  0  0  0  0  0  0999 V2000
    7.0910   -3.3010   19.2930 C   0  0  0  0  0  0  0  0  0  0  0  0
    6.3290   -4.0440   20.2950 C   0  0  0  0  0  0  0  0  0  0  0  0
    5.3040   -4.6360   19.9170 O   0  0  0  0  0  0  0  0  0  0  0  0
    6.7770   -4.1200   21.6430 N   0  0  0  0  0  0  0  0  0  0  0  0
    6.6510   -5.3720   22.3320 C   0  0  0  0  0  0  0  0  0  0  0  0
    6.0490   -5.1060   23.6750 C   0  0  0  0  0  0  0  0  0  0  0  0
    6.0650   -3.6050   23.8140 C   0  0  0  0  0  0  0  0  0  0  0  0
    5.6510   -3.1750   25.1950 C   0  0  0  0  0  0  0  0  0  0  0  0
    4.4960   -2.7760   25.3110 O   0  0  0  0  0  0  0  0  0  0  0  0
    6.5670   -3.2470   26.2320 N   0  0  0  0  0  0  0  0  0  0  0  0
    6.2060   -3.6200   27.5680 C   0  0  0  0  0  0  0  0  0  0  0  0
    6.0500   -4.9980   27.8300 C   0  0  0  0  0  0  0  0  0  0  0  0
    5.5680   -5.8540   26.8760 C   0  0  0  0  0  0  0  0  0  0  0  0
    4.0460   -6.3280   27.4980 S   0  0  0  0  0  0  0  0  0  0  0  0
    4.0810   -7.4830   28.4670 O   0  0  0  0  0  0  0  0  0  0  0  0
    3.2990   -5.1860   28.1130 O   0  0  0  0  0  0  0  0  0  0  0  0
    3.2350   -6.7590   26.0150 C   0  0  0  0  0  0  0  0  0  0  0  0
    3.0460   -5.8570   24.8410 C   0  0  0  0  0  0  0  0  0  0  0  0
    2.3240   -6.2260   23.5260 C   0  0  0  0  0  0  0  0  0  0  0  0
    1.7730   -7.6080   23.4360 C   0  0  0  0  0  0  0  0  0  0  0  0
    1.1370   -7.8670   22.2280 F   0  0  0  0  0  0  0  0  0  0  0  0
    1.9650   -8.5200   24.6210 C   0  0  0  0  0  0  0  0  0  0  0  0
    2.7050   -8.0360   25.8850 C   0  0  0  0  0  0  0  0  0  0  0  0
    7.4780   -3.1280   23.5700 C   0  0  0  0  0  0  0  0  0  0  0  0
    7.6360   -3.0850   22.1940 C   0  0  0  0  0  0  0  0  0  0  0  0
  1  2  1  0
  2  3  2  0
  2  4  1  0
  4  5  1  0
  5  6  1  0
  6  7  1  0
  7  8  1  0
  8  9  2  0
  8 10  1  0
 10 11  1  0
 11 12  1  0
 12 13  1  0
 14 13  1  0
 14 15  2  0
 14 16  2  0
 14 17  1  0
 17 18  2  0
 18 19  1  0
 19 20  2  0
 20 21  1  0
 20 22  1  0
 17 23  1  0
 22 23  2  0
  7 24  1  0
  4 25  1  0
 24 25  1  0
M  END
