piperidine-amides-2333-covalent
     RDKit          3D

 27 29  0  0  0  0  0  0  0  0999 V2000
    7.1280   -3.3110   19.2400 C   0  0  0  0  0  0  0  0  0  0  0  0
    6.3600   -4.0620   20.2640 C   0  0  0  0  0  0  0  0  0  0  0  0
    5.3050   -4.5750   19.9010 O   0  0  0  0  0  0  0  0  0  0  0  0
    6.8770   -4.2000   21.5560 N   0  0  0  0  0  0  0  0  0  0  0  0
    7.7150   -3.1840   22.1280 C   0  0  0  0  0  0  0  0  0  0  0  0
    7.0240   -2.6090   23.3240 C   0  0  0  0  0  0  0  0  0  0  0  0
    6.6020   -3.7120   24.3040 C   0  0  0  0  0  0  0  0  0  0  0  0
    5.8170   -3.0240   25.3510 C   0  0  0  0  0  0  0  0  0  0  0  0
    4.6730   -3.4230   25.6130 O   0  0  0  0  0  0  0  0  0  0  0  0
    6.3510   -1.9020   26.0350 N   0  0  0  0  0  0  0  0  0  0  0  0
    6.5720   -1.9750   27.4620 C   0  0  0  0  0  0  0  0  0  0  0  0
    6.9880   -3.3760   27.7290 C   0  0  0  0  0  0  0  0  0  0  0  0
    6.3300   -4.0870   28.7000 C   0  0  0  0  0  0  0  0  0  0  0  0
    6.6320   -5.3180   28.9840 C   0  0  0  0  0  0  0  0  0  0  0  0
    7.6040   -5.8380   28.2810 C   0  0  0  0  0  0  0  0  0  0  0  0
    8.4230   -5.2210   27.1920 C   0  0  0  0  0  0  0  0  0  0  0  0
    9.6750   -5.9780   26.3020 Cl  0  0  0  0  0  0  0  0  0  0  0  0
    8.1140   -3.7860   26.8310 C   0  0  0  0  0  0  0  0  0  0  0  0
    5.2800   -1.7810   28.2610 C   0  0  0  0  0  0  0  0  0  0  0  0
    5.4480   -1.6920   29.7500 C   0  0  0  0  0  0  0  0  0  0  0  0
    4.2380   -1.5020   30.5830 C   0  0  0  0  0  0  0  0  0  0  0  0
    2.8940   -1.4070   29.9210 C   0  0  0  0  0  0  0  0  0  0  0  0
    2.7830   -1.5010   28.4450 C   0  0  0  0  0  0  0  0  0  0  0  0
    1.1990   -1.3840   27.7080 Cl  0  0  0  0  0  0  0  0  0  0  0  0
    4.0450   -1.6950   27.6180 C   0  0  0  0  0  0  0  0  0  0  0  0
    5.7260   -4.7300   23.5910 C   0  0  0  0  0  0  0  0  0  0  0  0
    6.3990   -5.2820   22.3570 C   0  0  0  0  0  0  0  0  0  0  0  0
  1  2  1  0
  2  3  2  0
  2  4  1  0
  4  5  1  0
  5  6  1  0
  6  7  1  0
  7  8  1  0
  8  9  2  0
  8 10  1  0
 10 11  1  0
 11 12  1  0
 12 13  2  0
 13 14  1  0
 14 15  2  0
 15 16  1  0
 16 17  1  0
 12 18  1  0
 16 18  2  0
 11 19  1  0
 19 20  2  0
 20 21  1  0
 21 22  2  0
 22 23  1  0
 23 24  1  0
 19 25  1  0
 23 25  2  0
  7 26  1  0
  4 27  1  0
 26 27  1  0
M  END
