piperidine-amides-27144-covalent
     RDKit          3D

 25 27  0  0  0  0  0  0  0  0999 V2000
    7.1200   -3.3240   19.2260 C   0  0  0  0  0  0  0  0  0  0  0  0
    6.4240   -4.1320   20.2310 C   0  0  0  0  0  0  0  0  0  0  0  0
    5.3170   -4.6290   19.9100 O   0  0  0  0  0  0  0  0  0  0  0  0
    7.0310   -4.3650   21.4570 N   0  0  0  0  0  0  0  0  0  0  0  0
    6.7050   -5.5290   22.2400 C   0  0  0  0  0  0  0  0  0  0  0  0
    5.9610   -5.0540   23.4490 C   0  0  0  0  0  0  0  0  0  0  0  0
    6.6690   -3.9200   24.1480 C   0  0  0  0  0  0  0  0  0  0  0  0
    5.7760   -3.4000   25.1760 C   0  0  0  0  0  0  0  0  0  0  0  0
    4.7210   -2.8460   24.8000 O   0  0  0  0  0  0  0  0  0  0  0  0
    6.0020   -3.4820   26.5390 N   0  0  0  0  0  0  0  0  0  0  0  0
    6.5620   -2.3700   27.2450 C   0  0  0  0  0  0  0  0  0  0  0  0
    6.8570   -2.7130   28.7080 C   0  0  1  0  0  0  0  0  0  0  0  0
    6.1930   -1.9740   29.6540 C   0  0  0  0  0  0  0  0  0  0  0  0
    6.7410   -3.9240   29.0130 O   0  0  0  0  0  0  0  0  0  0  0  0
    5.5330   -4.3220   28.6200 C   0  0  2  0  0  0  0  0  0  0  0  0
    4.6780   -4.2800   29.6610 C   0  0  0  0  0  0  0  0  0  0  0  0
    4.5150   -5.4770   30.3000 C   0  0  0  0  0  0  0  0  0  0  0  0
    4.0890   -6.3980   29.5860 O   0  0  0  0  0  0  0  0  0  0  0  0
    4.2330   -6.2450   28.1860 C   0  0  0  0  0  0  0  0  0  0  0  0
    4.1810   -7.5930   27.5830 C   0  0  0  0  0  0  0  0  0  0  0  0
    3.3160   -5.4070   27.6170 C   0  0  0  0  0  0  0  0  0  0  0  0
    5.4420   -5.5660   28.0270 C   0  0  0  0  0  0  0  0  0  0  0  0
    5.0750   -3.5380   27.6170 C   0  0  0  0  0  0  0  0  0  0  0  0
    7.0570   -2.7870   23.2830 C   0  0  0  0  0  0  0  0  0  0  0  0
    7.7610   -3.2910   22.0690 C   0  0  0  0  0  0  0  0  0  0  0  0
  1  2  1  0
  2  3  2  0
  2  4  1  0
  4  5  1  0
  5  6  1  0
  6  7  1  0
  7  8  1  0
  8  9  2  0
  8 10  1  0
 10 11  1  0
 11 12  1  0
 12 13  1  1
 12 14  1  0
 15 14  1  0
 15 16  1  1
 16 17  1  0
 17 18  1  0
 18 19  1  0
 19 20  1  0
 19 21  1  0
 15 22  1  0
 19 22  1  0
 10 23  1  0
 15 23  1  0
  7 24  1  0
  4 25  1  0
 24 25  1  0
M  END
