piperidine-amides-2042-covalent
     RDKit          3D

 21 23  0  0  0  0  0  0  0  0999 V2000
    7.1300   -3.2530   19.1870 C   0  0  0  0  0  0  0  0  0  0  0  0
    6.3840   -4.0210   20.2200 C   0  0  0  0  0  0  0  0  0  0  0  0
    5.3190   -4.5320   19.8810 O   0  0  0  0  0  0  0  0  0  0  0  0
    6.9220   -4.1800   21.5000 N   0  0  0  0  0  0  0  0  0  0  0  0
    6.6740   -5.3590   22.2820 C   0  0  0  0  0  0  0  0  0  0  0  0
    5.9230   -4.9770   23.5250 C   0  0  0  0  0  0  0  0  0  0  0  0
    6.5480   -3.7360   24.1820 C   0  0  0  0  0  0  0  0  0  0  0  0
    5.5620   -3.2850   25.1780 C   0  0  0  0  0  0  0  0  0  0  0  0
    4.3610   -3.3360   24.8900 O   0  0  0  0  0  0  0  0  0  0  0  0
    5.9270   -2.8060   26.4490 N   0  0  0  0  0  0  0  0  0  0  0  0
    4.8270   -2.6380   27.3820 C   0  0  0  0  0  0  0  0  0  0  0  0
    5.2350   -1.8000   28.5710 C   0  0  1  0  0  0  0  0  0  0  0  0
    6.4890   -1.7790   29.1110 C   0  0  0  0  0  0  0  0  0  0  0  0
    6.6640   -0.5580   29.6690 C   0  0  0  0  0  0  0  0  0  0  0  0
    5.8650    0.3140   28.9810 C   0  0  0  0  0  0  0  0  0  0  0  0
    4.9690   -0.4700   28.3370 O   0  0  0  0  0  0  0  0  0  0  0  0
    3.7580   -3.5680   27.5200 C   0  0  0  0  0  0  0  0  0  0  0  0
    2.5910   -2.8550   26.8930 C   0  0  0  0  0  0  0  0  0  0  0  0
    3.6640   -1.8720   26.7550 C   0  0  0  0  0  0  0  0  0  0  0  0
    6.9850   -2.6470   23.2950 C   0  0  0  0  0  0  0  0  0  0  0  0
    7.6920   -3.1140   22.0800 C   0  0  0  0  0  0  0  0  0  0  0  0
  1  2  1  0
  2  3  2  0
  2  4  1  0
  4  5  1  0
  5  6  1  0
  6  7  1  0
  7  8  1  0
  8  9  2  0
  8 10  1  0
 11 10  1  0
 12 11  1  6
 12 13  1  0
 13 14  1  0
 14 15  1  0
 12 16  1  0
 15 16  1  0
 11 17  1  0
 17 18  1  0
 11 19  1  0
 18 19  1  0
  7 20  1  0
  4 21  1  0
 20 21  1  0
M  END
