piperidine-amides-7428-covalent
     RDKit          3D

 19 19  0  0  0  0  0  0  0  0999 V2000
    7.1330   -3.2970   19.1900 C   0  0  0  0  0  0  0  0  0  0  0  0
    6.3630   -4.0130   20.2070 C   0  0  0  0  0  0  0  0  0  0  0  0
    5.2570   -4.4980   19.8600 O   0  0  0  0  0  0  0  0  0  0  0  0
    6.8990   -4.1730   21.4780 N   0  0  0  0  0  0  0  0  0  0  0  0
    7.7280   -3.1490   22.0660 C   0  0  0  0  0  0  0  0  0  0  0  0
    7.0450   -2.6520   23.2980 C   0  0  0  0  0  0  0  0  0  0  0  0
    6.5950   -3.7760   24.1870 C   0  0  0  0  0  0  0  0  0  0  0  0
    5.8520   -3.2160   25.3400 C   0  0  0  0  0  0  0  0  0  0  0  0
    4.6020   -3.2980   25.3360 O   0  0  0  0  0  0  0  0  0  0  0  0
    6.4840   -2.5810   26.4270 N   0  0  0  0  0  0  0  0  0  0  0  0
    7.5390   -3.2150   27.1720 C   0  0  0  0  0  0  0  0  0  0  0  0
    8.1150   -4.4280   26.4610 C   0  0  0  0  0  0  0  0  0  0  0  0
    8.6860   -5.3050   27.1250 O   0  0  0  0  0  0  0  0  0  0  0  0
    7.8990   -5.6980   28.1690 C   0  0  0  0  0  0  0  0  0  0  0  0
    6.5720   -5.9260   27.8800 C   0  0  0  0  0  0  0  0  0  0  0  0
    5.8550   -6.7410   28.7490 C   0  0  0  0  0  0  0  0  0  0  0  0
    4.9740   -6.1350   29.6180 C   0  0  0  0  0  0  0  0  0  0  0  0
    5.6610   -4.7580   23.4840 C   0  0  0  0  0  0  0  0  0  0  0  0
    6.3780   -5.2840   22.2670 C   0  0  0  0  0  0  0  0  0  0  0  0
  1  2  1  0
  2  3  2  0
  2  4  1  0
  4  5  1  0
  5  6  1  0
  6  7  1  0
  7  8  1  0
  8  9  2  0
  8 10  1  0
 10 11  1  0
 11 12  1  0
 12 13  1  0
 13 14  1  0
 14 15  1  0
 15 16  1  0
 16 17  1  0
  7 18  1  0
  4 19  1  0
 18 19  1  0
M  END
