piperidine-amides-8232-covalent
     RDKit          3D

 25 27  0  0  0  0  0  0  0  0999 V2000
    7.0760   -3.3370   19.3080 C   0  0  0  0  0  0  0  0  0  0  0  0
    6.4260   -4.1840   20.3070 C   0  0  0  0  0  0  0  0  0  0  0  0
    5.3830   -4.7780   19.9700 O   0  0  0  0  0  0  0  0  0  0  0  0
    7.0020   -4.3650   21.5940 N   0  0  0  0  0  0  0  0  0  0  0  0
    6.4940   -5.4270   22.4010 C   0  0  0  0  0  0  0  0  0  0  0  0
    5.6210   -4.8240   23.4670 C   0  0  0  0  0  0  0  0  0  0  0  0
    6.4770   -3.8550   24.2700 C   0  0  0  0  0  0  0  0  0  0  0  0
    5.6640   -3.2790   25.3960 C   0  0  0  0  0  0  0  0  0  0  0  0
    4.4560   -3.1980   25.1950 O   0  0  0  0  0  0  0  0  0  0  0  0
    6.3030   -2.8860   26.5710 N   0  0  0  0  0  0  0  0  0  0  0  0
    6.7290   -1.5350   26.8120 C   0  0  1  0  0  0  0  0  0  0  0  0
    5.7330   -0.4860   26.6690 C   0  0  0  0  0  0  0  0  0  0  0  0
    5.6620    0.3670   27.7020 C   0  0  0  0  0  0  0  0  0  0  0  0
    4.9520    1.5430   27.6400 O   0  0  0  0  0  0  0  0  0  0  0  0
    6.4120   -0.2530   28.6350 N   0  0  0  0  0  0  0  0  0  0  0  0
    6.1340    0.1060   29.9740 C   0  0  0  0  0  0  0  0  0  0  0  0
    7.2840   -0.0780   30.9170 C   0  0  0  0  0  0  0  0  0  0  0  0
    7.0720    0.2850   32.3960 C   0  0  0  0  0  0  0  0  0  0  0  0
    5.7690    0.7960   32.8590 C   0  0  0  0  0  0  0  0  0  0  0  0
    4.6320    0.9700   31.8880 C   0  0  0  0  0  0  0  0  0  0  0  0
    4.8850    0.5920   30.3960 C   0  0  0  0  0  0  0  0  0  0  0  0
    3.8700    0.7360   29.4770 F   0  0  0  0  0  0  0  0  0  0  0  0
    7.0650   -1.4800   28.3650 C   0  0  0  0  0  0  0  0  0  0  0  0
    6.8950   -2.7300   23.3780 C   0  0  0  0  0  0  0  0  0  0  0  0
    7.6600   -3.2220   22.1840 C   0  0  0  0  0  0  0  0  0  0  0  0
  1  2  1  0
  2  3  2  0
  2  4  1  0
  4  5  1  0
  5  6  1  0
  6  7  1  0
  7  8  1  0
  8  9  2  0
  8 10  1  0
 11 10  1  1
 11 12  1  0
 12 13  1  0
 13 14  2  0
 13 15  1  0
 15 16  1  0
 16 17  2  0
 17 18  1  0
 18 19  2  0
 19 20  1  0
 16 21  1  0
 20 21  2  0
 21 22  1  0
 11 23  1  0
 15 23  1  0
  7 24  1  0
  4 25  1  0
 24 25  1  0
M  END
