piperidine-amides-7381-covalent
     RDKit          3D

 20 21  0  0  0  0  0  0  0  0999 V2000
    7.1470   -3.2660   19.1600 C   0  0  0  0  0  0  0  0  0  0  0  0
    6.3990   -3.9980   20.1850 C   0  0  0  0  0  0  0  0  0  0  0  0
    5.2830   -4.4710   19.8520 O   0  0  0  0  0  0  0  0  0  0  0  0
    6.9610   -4.1970   21.4410 N   0  0  0  0  0  0  0  0  0  0  0  0
    7.7580   -3.1800   22.0780 C   0  0  0  0  0  0  0  0  0  0  0  0
    7.0350   -2.7510   23.3110 C   0  0  0  0  0  0  0  0  0  0  0  0
    6.5520   -3.9360   24.0960 C   0  0  0  0  0  0  0  0  0  0  0  0
    5.7440   -3.4670   25.2230 C   0  0  0  0  0  0  0  0  0  0  0  0
    4.5200   -3.2760   25.0470 O   0  0  0  0  0  0  0  0  0  0  0  0
    6.2950   -3.2300   26.4770 N   0  0  0  0  0  0  0  0  0  0  0  0
    5.9440   -4.0670   27.5810 C   0  0  0  0  0  0  0  0  0  0  0  0
    6.4360   -3.4930   28.8840 C   0  0  0  0  0  0  0  0  0  0  0  0
    6.0390   -2.0590   28.9200 N   0  0  0  0  0  0  0  0  0  0  0  0
    6.1260   -1.3540   30.0270 C   0  0  0  0  0  0  0  0  0  0  0  0
    5.8530   -0.0560   29.7600 C   0  0  0  0  0  0  0  0  0  0  0  0
    5.6290    0.0510   28.4100 C   0  0  2  0  0  0  0  0  0  0  0  0
    4.4540    0.7240   28.1510 O   0  0  0  0  0  0  0  0  0  0  0  0
    5.8280   -1.2270   27.8590 C   0  0  0  0  0  0  0  0  0  0  0  0
    5.6490   -4.8790   23.3170 C   0  0  0  0  0  0  0  0  0  0  0  0
    6.4860   -5.3690   22.1710 C   0  0  0  0  0  0  0  0  0  0  0  0
  1  2  1  0
  2  3  2  0
  2  4  1  0
  4  5  1  0
  5  6  1  0
  6  7  1  0
  7  8  1  0
  8  9  2  0
  8 10  1  0
 10 11  1  0
 11 12  1  0
 12 13  1  0
 13 14  1  0
 14 15  1  0
 15 16  1  0
 16 17  1  1
 13 18  1  0
 16 18  1  0
  7 19  1  0
  4 20  1  0
 19 20  1  0
M  END
