piperidine-amides-4160-covalent
     RDKit          3D

 27 29  0  0  0  0  0  0  0  0999 V2000
    7.1050   -3.2980   19.2470 C   0  0  0  0  0  0  0  0  0  0  0  0
    6.3880   -4.0980   20.2500 C   0  0  0  0  0  0  0  0  0  0  0  0
    5.2990   -4.6090   19.9010 O   0  0  0  0  0  0  0  0  0  0  0  0
    6.9370   -4.3370   21.5300 N   0  0  0  0  0  0  0  0  0  0  0  0
    7.6140   -3.2570   22.1600 C   0  0  0  0  0  0  0  0  0  0  0  0
    7.1290   -2.8960   23.4860 C   0  0  0  0  0  0  0  0  0  0  0  0
    6.4450   -3.9650   24.2370 C   0  0  0  0  0  0  0  0  0  0  0  0
    5.7550   -3.3780   25.4280 C   0  0  0  0  0  0  0  0  0  0  0  0
    4.5110   -3.3150   25.4420 O   0  0  0  0  0  0  0  0  0  0  0  0
    6.4810   -2.8830   26.5240 N   0  0  0  0  0  0  0  0  0  0  0  0
    6.4120   -1.5980   27.1000 C   0  0  0  0  0  0  0  0  0  0  0  0
    5.8770   -0.3860   26.4610 C   0  0  0  0  0  0  0  0  0  0  0  0
    5.8750    0.9260   27.2610 C   0  0  0  0  0  0  0  0  0  0  0  0
    6.3750    0.8940   28.5320 C   0  0  0  0  0  0  0  0  0  0  0  0
    6.3560    2.0900   29.2210 O   0  0  0  0  0  0  0  0  0  0  0  0
    5.1070    2.4120   29.7340 C   0  0  0  0  0  0  0  0  0  0  0  0
    3.9630    1.7870   28.9770 C   0  0  0  0  0  0  0  0  0  0  0  0
    2.6580    2.2400   29.6690 C   0  0  0  0  0  0  0  0  0  0  0  0
    2.4300    3.1290   30.8700 C   0  0  0  0  0  0  0  0  0  0  0  0
    3.6710    3.6790   31.5190 C   0  0  0  0  0  0  0  0  0  0  0  0
    5.0310    3.3150   30.9430 C   0  0  0  0  0  0  0  0  0  0  0  0
    6.6230    3.9870   31.7310 Br  0  0  0  0  0  0  0  0  0  0  0  0
    6.9170   -0.3180   29.1730 C   0  0  0  0  0  0  0  0  0  0  0  0
    7.5360   -0.2080   30.8260 Cl  0  0  0  0  0  0  0  0  0  0  0  0
    6.9370   -1.5230   28.4830 C   0  0  0  0  0  0  0  0  0  0  0  0
    5.5790   -4.8620   23.4290 C   0  0  0  0  0  0  0  0  0  0  0  0
    6.4060   -5.4160   22.3000 C   0  0  0  0  0  0  0  0  0  0  0  0
  1  2  1  0
  2  3  2  0
  2  4  1  0
  4  5  1  0
  5  6  1  0
  6  7  1  0
  7  8  1  0
  8  9  2  0
  8 10  1  0
 10 11  1  0
 11 12  2  0
 12 13  1  0
 13 14  2  0
 14 15  1  0
 15 16  1  0
 16 17  2  0
 17 18  1  0
 18 19  2  0
 19 20  1  0
 16 21  1  0
 20 21  2  0
 21 22  1  0
 14 23  1  0
 23 24  1  0
 11 25  1  0
 23 25  2  0
  7 26  1  0
  4 27  1  0
 26 27  1  0
M  END
