piperidine-amides-34185-covalent
     RDKit          3D

 30 32  0  0  0  0  0  0  0  0999 V2000
    7.1210   -3.3030   19.2290 C   0  0  0  0  0  0  0  0  0  0  0  0
    6.4300   -4.1050   20.2450 C   0  0  0  0  0  0  0  0  0  0  0  0
    5.3770   -4.7210   19.9540 O   0  0  0  0  0  0  0  0  0  0  0  0
    6.9720   -4.2390   21.5290 N   0  0  0  0  0  0  0  0  0  0  0  0
    6.5570   -5.3500   22.3310 C   0  0  0  0  0  0  0  0  0  0  0  0
    5.6740   -4.7130   23.3980 C   0  0  0  0  0  0  0  0  0  0  0  0
    6.5500   -3.7210   24.1660 C   0  0  0  0  0  0  0  0  0  0  0  0
    5.7650   -3.1470   25.2820 C   0  0  0  0  0  0  0  0  0  0  0  0
    4.5900   -2.7980   25.0300 O   0  0  0  0  0  0  0  0  0  0  0  0
    6.2830   -2.9910   26.6050 N   0  0  0  0  0  0  0  0  0  0  0  0
    5.3310   -2.5900   27.6020 C   0  0  0  0  0  0  0  0  0  0  0  0
    5.7780   -3.0300   28.9790 C   0  0  0  0  0  0  0  0  0  0  0  0
    6.2220   -4.3940   28.9250 N   0  0  0  0  0  0  0  0  0  0  0  0
    5.3430   -5.5260   29.2650 C   0  0  0  0  0  0  0  0  0  0  0  0
    4.1290   -5.2060   29.4480 O   0  0  0  0  0  0  0  0  0  0  0  0
    5.9430   -6.7510   29.3420 C   0  0  2  0  0  0  0  0  0  0  0  0
    5.7630   -7.4010   30.5600 C   0  0  0  0  0  0  0  0  0  0  0  0
    7.2400   -6.5430   29.0370 O   0  0  0  0  0  0  0  0  0  0  0  0
    7.5350   -6.1230   27.7130 C   0  0  0  0  0  0  0  0  0  0  0  0
    9.0100   -5.9040   27.4820 C   0  0  0  0  0  0  0  0  0  0  0  0
    9.0500   -5.4790   26.0170 C   0  0  0  0  0  0  0  0  0  0  0  0
    8.1020   -5.2410   24.8670 C   0  0  0  0  0  0  0  0  0  0  0  0
    6.8140   -5.5490   25.4860 C   0  0  0  0  0  0  0  0  0  0  0  0
    5.7220   -5.4340   24.6770 F   0  0  0  0  0  0  0  0  0  0  0  0
    6.5320   -5.9490   26.7630 C   0  0  0  0  0  0  0  0  0  0  0  0
    5.2260   -6.1880   27.1060 F   0  0  0  0  0  0  0  0  0  0  0  0
    7.4630   -4.5120   28.2140 C   0  0  0  0  0  0  0  0  0  0  0  0
    7.5050   -3.4960   27.0980 C   0  0  0  0  0  0  0  0  0  0  0  0
    7.0170   -2.5840   23.2860 C   0  0  0  0  0  0  0  0  0  0  0  0
    7.7900   -3.1910   22.1090 C   0  0  0  0  0  0  0  0  0  0  0  0
  1  2  1  0
  2  3  2  0
  2  4  1  0
  4  5  1  0
  5  6  1  0
  6  7  1  0
  7  8  1  0
  8  9  2  0
  8 10  1  0
 10 11  1  0
 11 12  1  0
 12 13  1  0
 13 14  1  0
 14 15  2  0
 14 16  1  0
 16 17  1  1
 16 18  1  0
 18 19  1  0
 19 20  2  0
 20 21  1  0
 21 22  2  0
 22 23  1  0
 23 24  1  0
 19 25  1  0
 23 25  2  0
 25 26  1  0
 13 27  1  0
 10 28  1  0
 27 28  1  0
  7 29  1  0
  4 30  1  0
 29 30  1  0
M  END
