
     RDKit          3D

 16 17  0  0  0  0  0  0  0  0999 V2000
    8.7840   -3.1840   18.1500 S   0  0  0  0  0  0  0  0  0  0  0  0
    6.8630   -2.5190   20.8290 N   0  0  0  0  0  0  0  0  0  0  0  0
    7.1310   -2.4940   18.3800 C   0  0  0  0  0  0  0  0  0  0  0  0
    5.8460   -4.0950   19.5990 O   0  0  0  0  0  0  0  0  0  0  0  0
    6.5420   -3.0820   19.6480 C   0  0  0  0  0  0  0  0  0  0  0  0
    8.7000   -2.2350   22.9860 N   0  0  0  0  0  0  0  0  0  0  0  0
    7.5760   -1.2610   21.0280 C   0  0  0  0  0  0  0  0  0  0  0  0
    8.8930   -1.5550   21.7020 C   0  0  0  0  0  0  0  0  0  0  0  0
   10.0050   -2.5850   23.5690 C   0  0  0  0  0  0  0  0  0  0  0  0
   10.9690   -1.4460   23.6050 C   0  0  0  0  0  0  0  0  0  0  0  0
   12.0600   -1.2010   22.7630 C   0  0  0  0  0  0  0  0  0  0  0  0
   12.7430   -0.0180   23.1380 C   0  0  0  0  0  0  0  0  0  0  0  0
   12.0620    0.7030   24.0560 C   0  0  0  0  0  0  0  0  0  0  0  0
    7.9180   -3.4600   22.7850 C   0  0  0  0  0  0  0  0  0  0  0  0
    6.6010   -3.1670   22.1060 C   0  0  0  0  0  0  0  0  0  0  0  0
   10.8330   -0.2110   24.7900 S   0  0  0  0  0  0  0  0  0  0  0  0
  1  3  1  0
  2  5  1  0
  2  7  1  0
  2 15  1  0
  3  5  1  0
  4  5  2  0
  6  8  1  0
  6  9  1  0
  6 14  1  0
  7  8  1  0
  9 10  1  0
 10 11  2  0
 10 16  1  0
 11 12  1  0
 12 13  2  0
 13 16  1  0
 14 15  1  0
M  END
