
     RDKit          3D

 20 21  0  0  0  0  0  0  0  0999 V2000
    8.2550   -3.3890   18.6170 S   0  0  0  0  0  0  0  0  0  0  0  0
    5.4180   -5.4990   24.3470 N   0  0  0  0  0  0  0  0  0  0  0  0
    2.8560   -1.9280   25.8070 C   0  0  0  0  0  0  0  0  0  0  0  0
    3.9980   -6.7390   25.9300 O   0  0  0  0  0  0  0  0  0  0  0  0
    1.5170   -2.2190   25.7210 C   0  0  0  0  0  0  0  0  0  0  0  0
    6.4300   -5.0820   21.7510 N   0  0  0  0  0  0  0  0  0  0  0  0
    5.6710   -5.1210   26.7690 O   0  0  0  0  0  0  0  0  0  0  0  0
    1.1490   -3.5490   25.6680 C   0  0  0  0  0  0  0  0  0  0  0  0
    5.7120   -4.4650   19.6960 O   0  0  0  0  0  0  0  0  0  0  0  0
    2.1110   -4.5480   25.6930 C   0  0  0  0  0  0  0  0  0  0  0  0
    3.4540   -4.2120   25.7750 C   0  0  0  0  0  0  0  0  0  0  0  0
    3.8450   -2.8850   25.8340 C   0  0  0  0  0  0  0  0  0  0  0  0
    6.4530   -4.4790   24.1140 C   0  0  0  0  0  0  0  0  0  0  0  0
    7.2840   -4.8710   22.9220 C   0  0  0  0  0  0  0  0  0  0  0  0
    5.4100   -6.0990   22.0010 C   0  0  0  0  0  0  0  0  0  0  0  0
    4.5540   -5.6880   23.1710 C   0  0  0  0  0  0  0  0  0  0  0  0
    6.5630   -4.4250   20.5750 C   0  0  0  0  0  0  0  0  0  0  0  0
    7.8280   -3.6360   20.3630 C   0  0  0  0  0  0  0  0  0  0  0  0
    3.2310   -0.6310   25.8600 F   0  0  0  0  0  0  0  0  0  0  0  0
    4.6780   -5.4860   25.8090 S   0  0  1  0  0  0  0  0  0  0  0  0
  1 18  1  0
  2 13  1  0
  2 16  1  0
  2 20  1  0
  3  5  2  0
  3 12  1  0
  3 19  1  0
  4 20  2  0
  5  8  1  0
  6 14  1  0
  6 15  1  0
  6 17  1  0
  7 20  2  0
  8 10  2  0
  9 17  2  0
 10 11  1  0
 11 12  2  0
 20 11  1  6
 13 14  1  0
 15 16  1  0
 17 18  1  0
M  END
