
     RDKit          3D

 19 20  0  0  0  0  0  0  0  0999 V2000
    8.1070   -3.2720   18.6530 S   0  0  0  0  0  0  0  0  0  0  0  0
   10.5240   -4.3390   25.8680 C   0  0  0  0  0  0  0  0  0  0  0  0
    9.4260   -4.3870   24.8700 C   0  0  0  0  0  0  0  0  0  0  0  0
    8.7520   -5.5700   24.6420 C   0  0  0  0  0  0  0  0  0  0  0  0
    7.7360   -5.6480   23.7150 C   0  0  0  0  0  0  0  0  0  0  0  0
    7.3750   -4.5140   22.9930 C   0  0  0  0  0  0  0  0  0  0  0  0
    6.3100   -4.5920   22.0420 N   0  0  0  0  0  0  0  0  0  0  0  0
    6.5410   -4.2960   20.7320 C   0  0  0  0  0  0  0  0  0  0  0  0
    5.7450   -4.5940   19.8540 O   0  0  0  0  0  0  0  0  0  0  0  0
    7.8260   -3.5610   20.4210 C   0  0  0  0  0  0  0  0  0  0  0  0
    4.9930   -4.9970   22.5170 C   0  0  2  0  0  0  0  0  0  0  0  0
    4.7830   -4.4910   23.9390 C   0  0  0  0  0  0  0  0  0  0  0  0
    4.1610   -5.3360   24.7530 C   0  0  0  0  0  0  0  0  0  0  0  0
    3.8220   -6.8600   23.9710 S   0  0  2  0  0  0  0  0  0  0  0  0
    2.4390   -6.9390   23.5840 O   0  0  0  0  0  0  0  0  0  0  0  0
    4.3580   -7.9420   24.7510 O   0  0  0  0  0  0  0  0  0  0  0  0
    4.8420   -6.5240   22.5500 C   0  0  0  0  0  0  0  0  0  0  0  0
    8.0380   -3.3090   23.2190 C   0  0  0  0  0  0  0  0  0  0  0  0
    9.0630   -3.2640   24.1430 C   0  0  0  0  0  0  0  0  0  0  0  0
  1 10  1  0
  2  3  1  0
  3  4  2  0
  3 19  1  0
  4  5  1  0
  5  6  2  0
  6  7  1  0
  6 18  1  0
  7  8  1  0
 11  7  1  1
  8  9  2  0
  8 10  1  0
 11 12  1  0
 11 17  1  0
 12 13  2  0
 14 13  1  1
 14 15  2  0
 14 16  2  0
 14 17  1  0
 18 19  2  0
M  END
