
     RDKit          3D

 17 18  0  0  0  0  0  0  0  0999 V2000
    6.6900   -2.6410   21.0240 N   0  0  0  0  0  0  0  0  0  0  0  0
    7.0090   -2.6220   18.5880 C   0  0  0  0  0  0  0  0  0  0  0  0
    5.7040   -4.2230   19.7340 O   0  0  0  0  0  0  0  0  0  0  0  0
   13.9130   -1.1410   21.4730 Cl  0  0  0  0  0  0  0  0  0  0  0  0
    6.4110   -3.2260   19.8330 C   0  0  0  0  0  0  0  0  0  0  0  0
    8.3950   -2.2530   23.2790 N   0  0  0  0  0  0  0  0  0  0  0  0
    6.3520   -3.2460   22.3130 C   0  0  0  0  0  0  0  0  0  0  0  0
    7.6120   -3.4810   23.1150 C   0  0  0  0  0  0  0  0  0  0  0  0
    9.6260   -2.5420   24.0250 C   0  0  0  0  0  0  0  0  0  0  0  0
   10.7240   -1.5270   23.8290 C   0  0  0  0  0  0  0  0  0  0  0  0
   10.7830   -0.3700   24.5890 C   0  0  0  0  0  0  0  0  0  0  0  0
   11.7980    0.5500   24.3920 C   0  0  0  0  0  0  0  0  0  0  0  0
   12.7730    0.3290   23.4400 C   0  0  0  0  0  0  0  0  0  0  0  0
   12.7060   -0.8210   22.6860 C   0  0  0  0  0  0  0  0  0  0  0  0
   11.7000   -1.7410   22.8720 C   0  0  0  0  0  0  0  0  0  0  0  0
    8.6690   -1.6320   21.9800 C   0  0  0  0  0  0  0  0  0  0  0  0
    7.3840   -1.3750   21.2290 C   0  0  0  0  0  0  0  0  0  0  0  0
  1  5  1  0
  1  7  1  0
  1 17  1  0
  2  5  1  0
  3  5  2  0
  4 14  1  0
  6  8  1  0
  6  9  1  0
  6 16  1  0
  7  8  1  0
  9 10  1  0
 10 11  2  0
 10 15  1  0
 11 12  1  0
 12 13  2  0
 13 14  1  0
 14 15  2  0
 16 17  1  0
M  END
