
     RDKit          3D

 10 10  0  0  0  0  0  0  0  0999 V2000
   22.9250  -20.2190   23.3430 N   0  0  0  0  0  0  0  0  0  0  0  0
   23.8770  -17.9970   24.0380 C   0  0  0  0  0  0  0  0  0  0  0  0
   22.9990  -18.7450   23.0250 C   0  0  0  0  0  0  0  0  0  0  0  0
   20.6940  -24.0970   24.0930 N   0  0  0  0  0  0  0  0  0  0  0  0
   21.6800  -20.5520   24.1090 C   0  0  0  0  0  0  0  0  0  0  0  0
   20.3220  -23.6340   22.8610 N   0  0  0  0  0  0  0  0  0  0  0  0
   21.2630  -21.9670   23.9270 C   0  0  0  0  0  0  0  0  0  0  0  0
   20.6560  -22.4040   22.7550 N   0  0  0  0  0  0  0  0  0  0  0  0
   21.3020  -23.0560   24.8040 C   0  0  0  0  0  0  0  0  0  0  0  0
   20.4800  -25.4870   24.5340 C   0  0  0  0  0  0  0  0  0  0  0  0
  1  3  1  0
  1  5  1  0
  2  3  1  0
  4  6  1  0
  4  9  1  0
  4 10  1  0
  5  7  1  0
  6  8  2  0
  7  8  1  0
  7  9  2  0
M  END
