
     RDKit          3D

 18 19  0  0  0  0  0  0  0  0999 V2000
    8.3060   -3.3590   18.5420 S   0  0  0  0  0  0  0  0  0  0  0  0
    6.3770   -5.0220   21.6630 N   0  0  0  0  0  0  0  0  0  0  0  0
    7.6280   -3.4370   20.2260 C   0  0  0  0  0  0  0  0  0  0  0  0
    5.6950   -4.6730   19.5580 O   0  0  0  0  0  0  0  0  0  0  0  0
    6.4990   -4.4340   20.4530 C   0  0  0  0  0  0  0  0  0  0  0  0
    5.3240   -5.2210   24.2770 N   0  0  0  0  0  0  0  0  0  0  0  0
    3.8380   -6.2660   25.9480 O   0  0  0  0  0  0  0  0  0  0  0  0
    3.8520   -2.1540   25.9750 S   0  0  0  0  0  0  0  0  0  0  0  0
    7.2190   -4.7570   22.8300 C   0  0  0  0  0  0  0  0  0  0  0  0
    5.5770   -4.6660   26.6700 O   0  0  0  0  0  0  0  0  0  0  0  0
    6.3730   -4.2380   23.9610 C   0  0  0  0  0  0  0  0  0  0  0  0
    4.4790   -5.5340   23.1110 C   0  0  0  0  0  0  0  0  0  0  0  0
    5.3470   -6.0140   21.9750 C   0  0  0  0  0  0  0  0  0  0  0  0
    3.4210   -3.7690   25.6010 C   0  0  0  0  0  0  0  0  0  0  0  0
    2.1110   -3.8850   25.2050 C   0  0  0  0  0  0  0  0  0  0  0  0
    1.4590   -2.6270   25.2510 C   0  0  0  0  0  0  0  0  0  0  0  0
    2.2440   -1.6400   25.7420 C   0  0  0  0  0  0  0  0  0  0  0  0
    4.5810   -5.0670   25.7250 S   0  0  1  0  0  0  0  0  0  0  0  0
  1  3  1  0
  2  5  1  0
  2  9  1  0
  2 13  1  0
  3  5  1  0
  4  5  2  0
  6 11  1  0
  6 12  1  0
  6 18  1  0
  7 18  2  0
  8 14  1  0
  8 17  1  0
  9 11  1  0
 10 18  2  0
 12 13  1  0
 14 15  2  0
 18 14  1  6
 15 16  1  0
 16 17  2  0
M  END
