
     RDKit          3D

 17 18  0  0  0  0  0  0  0  0999 V2000
    8.7630   -3.2660   18.2680 S   0  0  0  0  0  0  0  0  0  0  0  0
    6.9580   -2.9050   21.0170 N   0  0  0  0  0  0  0  0  0  0  0  0
    7.1440   -2.5370   18.5800 C   0  0  0  0  0  0  0  0  0  0  0  0
    5.7580   -4.1660   19.6090 O   0  0  0  0  0  0  0  0  0  0  0  0
    6.5650   -3.2600   19.7770 C   0  0  0  0  0  0  0  0  0  0  0  0
    8.2580   -2.7560   23.5270 N   0  0  0  0  0  0  0  0  0  0  0  0
    8.2950   -1.3200   25.2850 O   0  0  0  0  0  0  0  0  0  0  0  0
    6.5330   -3.7210   22.1550 C   0  0  0  0  0  0  0  0  0  0  0  0
    7.7030   -4.0230   23.0590 C   0  0  0  0  0  0  0  0  0  0  0  0
    8.7880   -1.9660   22.4160 C   0  0  0  0  0  0  0  0  0  0  0  0
    7.6990   -1.6920   21.3930 C   0  0  0  0  0  0  0  0  0  0  0  0
    8.4010   -2.4610   24.8430 C   0  0  0  0  0  0  0  0  0  0  0  0
    8.6940   -3.5500   25.7180 C   0  0  0  0  0  0  0  0  0  0  0  0
    9.5910   -4.5700   25.4680 C   0  0  0  0  0  0  0  0  0  0  0  0
    9.4630   -5.5990   26.4210 C   0  0  0  0  0  0  0  0  0  0  0  0
    8.6880   -5.2550   27.4730 C   0  0  0  0  0  0  0  0  0  0  0  0
    7.9250   -3.7570   27.2440 S   0  0  0  0  0  0  0  0  0  0  0  0
  1  3  1  0
  2  5  1  0
  2  8  1  0
  2 11  1  0
  3  5  1  0
  4  5  2  0
  6  9  1  0
  6 10  1  0
  6 12  1  0
  7 12  2  0
  8  9  1  0
 10 11  1  0
 12 13  1  0
 13 14  2  0
 13 17  1  0
 14 15  1  0
 15 16  2  0
 16 17  1  0
M  END
