
     RDKit          3D

 17 18  0  0  0  0  0  0  0  0999 V2000
    8.9910   -3.3410   18.2760 S   0  0  0  0  0  0  0  0  0  0  0  0
    6.9370   -2.9310   21.0990 N   0  0  0  0  0  0  0  0  0  0  0  0
    7.4110   -2.5510   18.6880 C   0  0  0  0  0  0  0  0  0  0  0  0
    5.8640   -4.1400   19.5530 O   0  0  0  0  0  0  0  0  0  0  0  0
    6.6860   -3.2700   19.8160 C   0  0  0  0  0  0  0  0  0  0  0  0
    7.8900   -2.7850   23.7830 N   0  0  0  0  0  0  0  0  0  0  0  0
    6.1370   -2.1610   25.0570 O   0  0  0  0  0  0  0  0  0  0  0  0
    6.2820   -3.6610   22.1890 C   0  0  0  0  0  0  0  0  0  0  0  0
    8.4220    0.0140   25.2950 O   0  0  0  0  0  0  0  0  0  0  0  0
    7.2570   -4.0100   23.2930 C   0  0  0  0  0  0  0  0  0  0  0  0
    8.6550   -2.1390   22.7140 C   0  0  0  0  0  0  0  0  0  0  0  0
    7.7500   -1.7910   21.5470 C   0  0  0  0  0  0  0  0  0  0  0  0
    7.3370   -2.0870   24.8070 C   0  0  0  0  0  0  0  0  0  0  0  0
    8.1790   -1.2840   25.6610 C   0  0  0  0  0  0  0  0  0  0  0  0
    8.8100   -1.5640   26.8230 C   0  0  0  0  0  0  0  0  0  0  0  0
    9.4960   -0.3910   27.2170 C   0  0  0  0  0  0  0  0  0  0  0  0
    9.2320    0.5510   26.2490 C   0  0  0  0  0  0  0  0  0  0  0  0
  1  3  1  0
  2  5  1  0
  2  8  1  0
  2 12  1  0
  3  5  1  0
  4  5  2  0
  6 10  1  0
  6 11  1  0
  6 13  1  0
  7 13  2  0
  8 10  1  0
  9 14  1  0
  9 17  1  0
 11 12  1  0
 13 14  1  0
 14 15  2  0
 15 16  1  0
 16 17  2  0
M  END
