
     RDKit          3D

 17 18  0  0  0  0  0  0  0  0999 V2000
    6.9000   -4.2690   21.3940 N   0  0  0  0  0  0  0  0  0  0  0  0
    6.9770   -3.0320   19.2670 C   0  0  0  0  0  0  0  0  0  0  0  0
    5.6090   -4.9170   19.6550 O   0  0  0  0  0  0  0  0  0  0  0  0
    6.4400   -4.1490   20.1250 C   0  0  0  0  0  0  0  0  0  0  0  0
    6.4480   -3.4540   26.7020 N   0  0  0  0  0  0  0  0  0  0  0  0
    4.8190   -2.7490   25.3110 O   0  0  0  0  0  0  0  0  0  0  0  0
    7.8210   -3.3610   22.0920 C   0  0  0  0  0  0  0  0  0  0  0  0
    7.1400   -2.7590   23.3040 C   0  0  0  0  0  0  0  0  0  0  0  0
    6.6090   -3.8620   24.2280 C   0  0  2  0  0  0  0  0  0  0  0  0
    5.6980   -4.7910   23.4420 C   0  0  0  0  0  0  0  0  0  0  0  0
    6.4350   -5.3620   22.2560 C   0  0  0  0  0  0  0  0  0  0  0  0
    5.9030   -3.3110   25.4470 C   0  0  0  0  0  0  0  0  0  0  0  0
    7.8440   -3.8050   26.9880 C   0  0  0  0  0  0  0  0  0  0  0  0
    7.9280   -5.0220   27.8820 C   0  0  0  0  0  0  0  0  0  0  0  0
    7.2100   -4.7500   29.1890 C   0  0  0  0  0  0  0  0  0  0  0  0
    5.7680   -4.3620   28.9060 C   0  0  0  0  0  0  0  0  0  0  0  0
    5.6690   -3.2070   27.9240 C   0  0  0  0  0  0  0  0  0  0  0  0
  1  4  1  0
  1  7  1  0
  1 11  1  0
  2  4  1  0
  3  4  2  0
  5 12  1  0
  5 13  1  0
  5 17  1  0
  6 12  2  0
  7  8  1  0
  8  9  1  0
  9 10  1  0
  9 12  1  1
 10 11  1  0
 13 14  1  0
 14 15  1  0
 15 16  1  0
 16 17  1  0
M  END
