
     RDKit          3D

 18 19  0  0  0  0  0  0  0  0999 V2000
   23.7440  -16.4960   26.0400 N   0  0  0  0  0  0  0  0  0  0  0  0
   24.5410  -17.6230   25.5720 C   0  0  0  0  0  0  0  0  0  0  0  0
   25.6280  -17.7580   26.0160 O   0  0  0  0  0  0  0  0  0  0  0  0
   24.0330  -18.6720   24.5700 C   0  0  2  0  0  0  0  0  0  0  0  0
   24.7840  -18.7100   23.2950 C   0  0  0  0  0  0  0  0  0  0  0  0
   24.3940  -19.9390   22.4660 C   0  0  0  0  0  0  0  0  0  0  0  0
   22.9930  -20.5020   22.6480 N   0  0  0  0  0  0  0  0  0  0  0  0
   22.1690  -19.8980   23.7470 C   0  0  0  0  0  0  0  0  0  0  0  0
   22.6130  -18.5290   24.2320 C   0  0  0  0  0  0  0  0  0  0  0  0
   22.3930  -21.5840   21.8670 C   0  0  0  0  0  0  0  0  0  0  0  0
   21.2870  -21.9410   22.1210 O   0  0  0  0  0  0  0  0  0  0  0  0
   23.1100  -22.2210   20.7810 N   0  0  0  0  0  0  0  0  0  0  0  0
   22.5140  -23.2840   20.0050 C   0  0  0  0  0  0  0  0  0  0  0  0
   22.4210  -23.1180   18.6360 C   0  0  0  0  0  0  0  0  0  0  0  0
   21.8660  -24.1200   17.8530 C   0  0  0  0  0  0  0  0  0  0  0  0
   21.4070  -25.2900   18.4480 C   0  0  0  0  0  0  0  0  0  0  0  0
   21.5010  -25.4560   19.8250 C   0  0  0  0  0  0  0  0  0  0  0  0
   22.0560  -24.4530   20.6040 C   0  0  0  0  0  0  0  0  0  0  0  0
  1  2  1  0
  2  3  2  0
  4  2  1  1
  4  5  1  0
  4  9  1  0
  5  6  1  0
  6  7  1  0
  7  8  1  0
  7 10  1  0
  8  9  1  0
 10 11  2  0
 10 12  1  0
 12 13  1  0
 13 14  2  0
 13 18  1  0
 14 15  1  0
 15 16  2  0
 16 17  1  0
 17 18  2  0
M  END
