
     RDKit          3D

 19 20  0  0  0  0  0  0  0  0999 V2000
    8.2500   -3.4390   18.5710 S   0  0  0  0  0  0  0  0  0  0  0  0
    6.4980   -5.1740   21.7220 N   0  0  0  0  0  0  0  0  0  0  0  0
    7.6970   -3.5840   20.2860 C   0  0  0  0  0  0  0  0  0  0  0  0
    5.6790   -4.7100   19.6860 O   0  0  0  0  0  0  0  0  0  0  0  0
    0.8600   -1.3080   25.6190 Cl  0  0  0  0  0  0  0  0  0  0  0  0
    6.5530   -4.5490   20.5310 C   0  0  0  0  0  0  0  0  0  0  0  0
    5.6160   -5.3560   24.3700 N   0  0  0  0  0  0  0  0  0  0  0  0
    4.0960   -6.3790   26.0170 O   0  0  0  0  0  0  0  0  0  0  0  0
    2.3820   -3.8530   25.7650 S   0  0  0  0  0  0  0  0  0  0  0  0
    5.4470   -6.1230   22.0820 C   0  0  0  0  0  0  0  0  0  0  0  0
    6.1290   -5.1700   26.7610 O   0  0  0  0  0  0  0  0  0  0  0  0
    4.6760   -5.5980   23.2620 C   0  0  0  0  0  0  0  0  0  0  0  0
    6.6820   -4.4040   24.0180 C   0  0  0  0  0  0  0  0  0  0  0  0
    7.4300   -4.9450   22.8290 C   0  0  0  0  0  0  0  0  0  0  0  0
    4.0780   -3.8270   26.0030 C   0  0  0  0  0  0  0  0  0  0  0  0
    4.5760   -2.5720   26.2600 C   0  0  0  0  0  0  0  0  0  0  0  0
    3.6010   -1.5740   26.0090 C   0  0  0  0  0  0  0  0  0  0  0  0
    2.3460   -2.1370   25.8090 C   0  0  0  0  0  0  0  0  0  0  0  0
    5.0080   -5.2860   25.8810 S   0  0  1  0  0  0  0  0  0  0  0  0
  1  3  1  0
  2  6  1  0
  2 10  1  0
  2 14  1  0
  3  6  1  0
  4  6  2  0
  5 18  1  0
  7 12  1  0
  7 13  1  0
  7 19  1  0
  8 19  2  0
  9 15  1  0
  9 18  1  0
 10 12  1  0
 11 19  2  0
 13 14  1  0
 15 16  2  0
 19 15  1  6
 16 17  1  0
 17 18  2  0
M  END
