
     RDKit          3D

 19 21  0  0  0  0  0  0  0  0999 V2000
    8.7400   -3.6530   18.5290 S   0  0  0  0  0  0  0  0  0  0  0  0
    7.0550   -4.5380   21.2790 N   0  0  0  0  0  0  0  0  0  0  0  0
    7.3060   -2.9720   19.3840 C   0  0  0  0  0  0  0  0  0  0  0  0
    5.5260   -4.5160   19.6420 O   0  0  0  0  0  0  0  0  0  0  0  0
    6.5570   -4.0620   20.1200 C   0  0  0  0  0  0  0  0  0  0  0  0
    9.9280   -2.3240   23.6870 N   0  0  0  0  0  0  0  0  0  0  0  0
    6.2290   -5.4070   22.1270 C   0  0  0  0  0  0  0  0  0  0  0  0
    7.0770   -6.3170   22.9910 C   0  0  0  0  0  0  0  0  0  0  0  0
    7.9350   -5.4960   23.9570 C   0  0  0  0  0  0  0  0  0  0  0  0
    8.3030   -4.1430   23.3380 C   0  0  2  0  0  0  0  0  0  0  0  0
    8.3830   -4.2840   21.8290 C   0  0  0  0  0  0  0  0  0  0  0  0
    9.5700   -3.5480   23.9110 C   0  0  0  0  0  0  0  0  0  0  0  0
   11.1440   -2.0460   24.3080 C   0  0  0  0  0  0  0  0  0  0  0  0
   11.8280   -0.8360   24.2530 C   0  0  0  0  0  0  0  0  0  0  0  0
   13.0290   -0.7290   24.9210 C   0  0  0  0  0  0  0  0  0  0  0  0
   13.5610   -1.7910   25.6390 C   0  0  0  0  0  0  0  0  0  0  0  0
   12.8970   -2.9940   25.7140 C   0  0  0  0  0  0  0  0  0  0  0  0
   11.6850   -3.1100   25.0390 C   0  0  0  0  0  0  0  0  0  0  0  0
   10.6290   -4.4830   24.9410 S   0  0  0  0  0  0  0  0  0  0  0  0
  1  3  1  0
  2  5  1  0
  2  7  1  0
  2 11  1  0
  3  5  1  0
  4  5  2  0
  6 12  2  0
  6 13  1  0
  7  8  1  0
  8  9  1  0
  9 10  1  0
 10 11  1  0
 10 12  1  1
 12 19  1  0
 13 14  2  0
 13 18  1  0
 14 15  1  0
 15 16  2  0
 16 17  1  0
 17 18  2  0
 18 19  1  0
M  END
