
     RDKit          3D

 17 18  0  0  0  0  0  0  0  0999 V2000
   21.0810    7.7090   22.4180 N   0  0  0  0  0  0  0  0  0  0  0  0
   21.6180    6.6220   23.1180 C   0  0  0  0  0  0  0  0  0  0  0  0
   22.1560    2.2820   25.8770 O   0  0  0  0  0  0  0  0  0  0  0  0
   21.2380    6.4120   24.4830 C   0  0  0  0  0  0  0  0  0  0  0  0
   23.8240    3.5890   26.9920 N   0  0  0  0  0  0  0  0  0  0  0  0
   24.3190    2.5370   24.7340 O   0  0  0  0  0  0  0  0  0  0  0  0
   21.7850    5.3510   25.2160 C   0  0  0  0  0  0  0  0  0  0  0  0
   24.8660    4.8070   28.5840 N   0  0  0  0  0  0  0  0  0  0  0  0
   22.7070    4.4290   24.6670 C   0  0  0  0  0  0  0  0  0  0  0  0
   23.0740    4.6700   23.2960 C   0  0  0  0  0  0  0  0  0  0  0  0
   22.5580    5.7230   22.5300 C   0  0  0  0  0  0  0  0  0  0  0  0
   24.7960    4.4980   27.2200 C   0  0  0  0  0  0  0  0  0  0  0  0
   25.5400    5.1140   26.2190 C   0  0  0  0  0  0  0  0  0  0  0  0
   26.3890    6.1070   26.6410 C   0  0  0  0  0  0  0  0  0  0  0  0
   26.4850    6.4610   27.9860 C   0  0  0  0  0  0  0  0  0  0  0  0
   25.7040    5.7920   28.9250 C   0  0  0  0  0  0  0  0  0  0  0  0
   23.2700    3.0850   25.4870 S   0  0  1  0  0  0  0  0  0  0  0  0
  1  2  1  0
  2  4  2  0
  2 11  1  0
  3 17  2  0
  4  7  1  0
  5 12  1  0
 17  5  1  1
  6 17  2  0
  7  9  2  0
  8 12  2  0
  8 16  1  0
  9 10  1  0
  9 17  1  0
 10 11  2  0
 12 13  1  0
 13 14  2  0
 14 15  1  0
 15 16  2  0
M  END
