x0072-x0995
     RDKit          3D

 13 13  0  0  0  0  0  0  0  0999 V2000
    6.6570   -5.2530   26.5510 C   0  0  0  0  0  0  0  0  0  0  0  0
    8.2390   -4.5190   26.2800 S   0  0  0  0  0  0  0  0  0  0  0  0
    9.0160   -5.6500   25.8440 O   0  0  0  0  0  0  0  0  0  0  0  0
    8.6020   -3.7340   27.4260 O   0  0  0  0  0  0  0  0  0  0  0  0
    8.0090   -3.5220   24.9520 N   0  0  0  0  0  0  0  0  0  0  0  0
    9.1320   -3.1980   24.0850 C   0  0  0  0  0  0  0  0  0  0  0  0
    9.1180   -1.8320   23.4230 C   0  0  0  0  0  0  0  0  0  0  0  0
   10.4750   -1.2000   23.3190 C   0  0  0  0  0  0  0  0  0  0  0  0
   11.5040   -1.8430   22.3870 C   0  0  0  0  0  0  0  0  0  0  0  0
   12.7990   -1.2660   22.2560 C   0  0  0  0  0  0  0  0  0  0  0  0
   13.0200   -0.1060   23.0260 C   0  0  0  0  0  0  0  0  0  0  0  0
   12.0800    0.4710   23.8740 C   0  0  0  0  0  0  0  0  0  0  0  0
   10.8050   -0.0500   24.0460 C   0  0  0  0  0  0  0  0  0  0  0  0
  1  2  1  0
  2  3  2  0
  2  4  2  0
  2  5  1  0
  5  6  1  0
  6  7  1  0
  7  8  1  0
  8  9  2  0
  9 10  1  0
 10 11  2  0
 11 12  1  0
  8 13  1  0
 12 13  2  0
M  END
