x0165-x0770
     RDKit          3D

 17 18  0  0  0  0  0  0  0  0999 V2000
    6.0850   -1.9690   18.7250 C   0  0  0  0  0  0  0  0  0  0  0  0
    5.3090   -4.1660   19.7060 O   0  0  0  0  0  0  0  0  0  0  0  0
   13.3880   -1.7210   21.1960 Cl  0  0  0  0  0  0  0  0  0  0  0  0
    5.8890   -2.9390   19.9040 C   0  0  0  0  0  0  0  0  0  0  0  0
    9.1670   -2.2720   24.1880 C   0  0  0  0  0  0  0  0  0  0  0  0
    6.4140   -2.5100   21.2060 N   0  0  0  0  0  0  0  0  0  0  0  0
    7.4200   -1.4230   21.1810 C   0  0  0  0  0  0  0  0  0  0  0  0
    8.5710   -1.7160   21.9370 C   0  0  0  0  0  0  0  0  0  0  0  0
    8.1380   -2.1820   23.2660 N   0  0  0  0  0  0  0  0  0  0  0  0
    7.4680   -3.4730   23.1430 C   0  0  0  0  0  0  0  0  0  0  0  0
    6.2820   -3.3280   22.4240 C   0  0  0  0  0  0  0  0  0  0  0  0
   10.6570   -0.2220   24.4610 C   0  0  0  0  0  0  0  0  0  0  0  0
   11.7860    0.5150   24.0750 C   0  0  0  0  0  0  0  0  0  0  0  0
   12.6490    0.0740   23.0740 C   0  0  0  0  0  0  0  0  0  0  0  0
   12.3940   -1.1310   22.4260 C   0  0  0  0  0  0  0  0  0  0  0  0
   11.3080   -1.8980   22.7550 C   0  0  0  0  0  0  0  0  0  0  0  0
   10.3650   -1.4380   23.8340 C   0  0  0  0  0  0  0  0  0  0  0  0
  1  4  1  0
  2  4  2  0
  4  6  1  0
  6  7  1  0
  7  8  1  0
  5  9  1  0
  8  9  1  0
  9 10  1  0
  6 11  1  0
 10 11  1  0
 12 13  2  0
 13 14  1  0
  3 15  1  0
 14 15  2  0
 15 16  1  0
  5 17  1  0
 12 17  1  0
 16 17  2  0
M  END
