x0165-x1493
     RDKit          3D

 12 12  0  0  0  0  0  0  0  0999 V2000
    4.7500   -6.3050   26.1530 C   0  0  0  0  0  0  0  0  0  0  0  0
    7.0940   -5.4230   26.4530 O   0  0  0  0  0  0  0  0  0  0  0  0
    6.0140   -5.5900   25.6400 C   0  0  0  0  0  0  0  0  0  0  0  0
    5.6660   -4.2590   19.9580 O   0  0  0  0  0  0  0  0  0  0  0  0
    6.6310   -4.1200   20.7430 C   0  0  0  0  0  0  0  0  0  0  0  0
    7.5630   -2.8920   20.6520 C   0  0  0  0  0  0  0  0  0  0  0  0
    5.9990   -5.1140   24.2480 N   0  0  0  0  0  0  0  0  0  0  0  0
    6.9580   -4.1810   23.7960 C   0  0  0  0  0  0  0  0  0  0  0  0
    7.8310   -4.4930   22.5880 C   0  0  0  0  0  0  0  0  0  0  0  0
    6.9350   -5.0670   21.7180 N   0  0  0  0  0  0  0  0  0  0  0  0
    5.9500   -5.9270   22.1160 C   0  0  0  0  0  0  0  0  0  0  0  0
    5.1910   -5.6190   23.2570 C   0  0  0  0  0  0  0  0  0  0  0  0
  1  3  1  0
  2  3  2  0
  4  5  2  0
  5  6  1  0
  3  7  1  0
  7  8  1  0
  8  9  1  0
  5 10  1  0
  9 10  1  0
 10 11  1  0
  7 12  1  0
 11 12  1  0
M  END
