x0165-x1119
     RDKit          3D

 17 18  0  0  0  0  0  0  0  0999 V2000
   20.8100    7.9300   22.5330 N   0  0  0  0  0  0  0  0  0  0  0  0
   22.6390    2.1400   25.0220 O   0  0  0  0  0  0  0  0  0  0  0  0
   23.7120    3.5440   26.8370 N   0  0  0  0  0  0  0  0  0  0  0  0
   24.9020    3.0470   24.6520 O   0  0  0  0  0  0  0  0  0  0  0  0
   23.5770    3.1910   25.1990 S   0  0  0  0  0  0  0  0  0  0  0  0
   21.4400    6.8650   23.1350 C   0  0  0  0  0  0  0  0  0  0  0  0
   22.5470    6.1030   22.3950 C   0  0  0  0  0  0  0  0  0  0  0  0
   23.2170    4.9550   23.0550 C   0  0  0  0  0  0  0  0  0  0  0  0
   22.7860    4.5560   24.4590 C   0  0  0  0  0  0  0  0  0  0  0  0
   21.7690    5.2700   25.1270 C   0  0  0  0  0  0  0  0  0  0  0  0
   21.0800    6.4620   24.4300 C   0  0  0  0  0  0  0  0  0  0  0  0
   24.8230    4.8280   28.5080 N   0  0  0  0  0  0  0  0  0  0  0  0
   25.7750    5.8240   28.9900 C   0  0  0  0  0  0  0  0  0  0  0  0
   26.5280    6.4590   27.9890 C   0  0  0  0  0  0  0  0  0  0  0  0
   26.4190    6.2060   26.6330 C   0  0  0  0  0  0  0  0  0  0  0  0
   25.5080    5.2630   26.2390 C   0  0  0  0  0  0  0  0  0  0  0  0
   24.7310    4.5930   27.1730 C   0  0  0  0  0  0  0  0  0  0  0  0
  2  5  2  0
  5  3  1  0
  4  5  2  0
  1  6  1  0
  6  7  2  0
  7  8  1  0
  5  9  1  0
  8  9  2  0
  9 10  1  0
  6 11  1  0
 10 11  2  0
 12 13  2  0
 13 14  1  0
 14 15  2  0
 15 16  1  0
  3 17  1  0
 12 17  1  0
 16 17  2  0
M  END
