x0161-x0981
     RDKit          3D

 15 14  0  0  0  0  0  0  0  0999 V2000
    1.1930   -8.7340   21.3210 C   0  0  0  0  0  0  0  0  0  0  0  0
    2.5780   -7.2200   22.6540 N   0  0  0  0  0  0  0  0  0  0  0  0
    0.4050   -6.6600   22.2150 O   0  0  0  0  0  0  0  0  0  0  0  0
    1.3370   -7.4530   22.1030 C   0  0  0  0  0  0  0  0  0  0  0  0
    2.3420   -8.4180   26.2550 N   0  0  0  0  0  0  0  0  0  0  0  0
    4.0220   -8.2240   24.7380 O   0  0  0  0  0  0  0  0  0  0  0  0
    2.8800   -6.0780   23.5350 C   0  0  1  0  0  0  0  0  0  0  0  0
    5.2260   -6.3800   22.6630 N   0  0  0  0  0  0  0  0  0  0  0  0
    4.6120   -4.3860   23.5850 O   0  0  0  0  0  0  0  0  0  0  0  0
    2.6850   -6.4330   25.0120 C   0  0  0  0  0  0  0  0  0  0  0  0
    3.0720   -7.7370   25.3090 C   0  0  0  0  0  0  0  0  0  0  0  0
    4.3150   -5.5380   23.2620 C   0  0  0  0  0  0  0  0  0  0  0  0
    6.5020   -5.9010   22.2140 C   0  0  0  0  0  0  0  0  0  0  0  0
    6.2260   -5.0750   21.4170 C   0  0  0  0  0  0  0  0  0  0  0  0
    5.6060   -5.3080   20.2190 C   0  0  0  0  0  0  0  0  0  0  0  0
  1  4  1  0
  2  4  1  0
  3  4  2  0
  2  7  1  0
  7 10  1  1
  5 11  1  0
  6 11  2  0
 10 11  1  0
  7 12  1  0
  8 12  1  0
  9 12  2  0
  8 13  1  0
 13 14  1  0
 14 15  2  3
M  END
