x0161-x1187
     RDKit          3D

 14 14  0  0  0  0  0  0  0  0999 V2000
   13.3080   -2.2630   24.4580 C   0  0  0  0  0  0  0  0  0  0  0  0
   12.7690   -0.9280   24.4740 O   0  0  0  0  0  0  0  0  0  0  0  0
   12.8840   -0.3090   23.4140 C   0  0  0  0  0  0  0  0  0  0  0  0
   13.4900   -0.6940   22.4270 O   0  0  0  0  0  0  0  0  0  0  0  0
    9.9380    5.1570   23.7350 S   0  0  0  0  0  0  0  0  0  0  0  0
   10.7710    6.2610   23.3010 O   0  0  0  0  0  0  0  0  0  0  0  0
    9.2540    5.1670   25.0170 O   0  0  0  0  0  0  0  0  0  0  0  0
    8.7530    4.9730   22.5600 N   0  0  0  0  0  0  0  0  0  0  0  0
   12.1910    1.0190   23.4650 C   0  0  0  0  0  0  0  0  0  0  0  0
   12.8330    2.3380   22.9480 C   0  0  0  0  0  0  0  0  0  0  0  0
   12.1660    3.5890   23.0100 C   0  0  0  0  0  0  0  0  0  0  0  0
   10.8980    3.6610   23.5560 C   0  0  0  0  0  0  0  0  0  0  0  0
   10.5510    2.3140   23.9420 C   0  0  0  0  0  0  0  0  0  0  0  0
   10.8950    1.1770   23.9930 C   0  0  0  0  0  0  0  0  0  0  0  0
  1  2  1  0
  2  3  1  0
  3  4  2  0
  5  6  2  0
  5  7  2  0
  5  8  1  0
  3  9  1  0
  9 10  2  0
 10 11  1  0
  5 12  1  0
 11 12  2  0
 12 13  1  0
  9 14  1  0
 13 14  2  0
M  END
