x0165-x1392
     RDKit          3D

 16 17  0  0  0  0  0  0  0  0999 V2000
   23.1880  -17.4870   24.2260 C   0  0  0  0  0  0  0  0  0  0  0  0
   22.4820  -22.2890   21.8930 C   0  0  0  0  0  0  0  0  0  0  0  0
   21.4600  -22.8890   22.2210 O   0  0  0  0  0  0  0  0  0  0  0  0
   22.9760  -22.3190   20.5110 N   0  0  0  0  0  0  0  0  0  0  0  0
   23.5330  -18.8090   24.0990 N   0  0  0  0  0  0  0  0  0  0  0  0
   24.1510  -19.0960   22.7940 C   0  0  0  0  0  0  0  0  0  0  0  0
   24.3160  -20.5790   22.3880 C   0  0  0  0  0  0  0  0  0  0  0  0
   23.2250  -21.4830   22.7820 N   0  0  0  0  0  0  0  0  0  0  0  0
   22.6100  -21.1690   24.0630 C   0  0  0  0  0  0  0  0  0  0  0  0
   22.3570  -19.6620   24.2580 C   0  0  0  0  0  0  0  0  0  0  0  0
   22.2990  -24.5820   19.7460 C   0  0  0  0  0  0  0  0  0  0  0  0
   21.9390  -25.4290   18.7060 C   0  0  0  0  0  0  0  0  0  0  0  0
   21.8610  -24.9280   17.4120 C   0  0  0  0  0  0  0  0  0  0  0  0
   22.1210  -23.5860   17.1330 C   0  0  0  0  0  0  0  0  0  0  0  0
   22.4840  -22.7270   18.1750 C   0  0  0  0  0  0  0  0  0  0  0  0
   22.5710  -23.2500   19.4620 C   0  0  0  0  0  0  0  0  0  0  0  0
  2  3  2  0
  2  4  1  0
  1  5  1  0
  5  6  1  0
  6  7  1  0
  2  8  1  0
  7  8  1  0
  8  9  1  0
  5 10  1  0
  9 10  1  0
 11 12  2  0
 12 13  1  0
 13 14  2  0
 14 15  1  0
  4 16  1  0
 11 16  1  0
 15 16  2  0
M  END
