x0161-x0770
     RDKit          3D

 28 30  0  0  0  0  0  0  0  0999 V2000
   13.2320   -1.5460   24.5720 C   0  0  0  0  0  0  0  0  0  0  0  0
   13.2560   -0.1460   24.1640 O   0  0  0  0  0  0  0  0  0  0  0  0
   13.5060    0.0250   22.9540 C   0  0  0  0  0  0  0  0  0  0  0  0
   13.4290   -0.1870   21.7800 O   0  0  0  0  0  0  0  0  0  0  0  0
   10.5420    5.0610   23.6030 S   0  0  0  0  0  0  0  0  0  0  0  0
   11.4660    5.9270   22.9120 O   0  0  0  0  0  0  0  0  0  0  0  0
   10.0580    5.4150   24.9140 O   0  0  0  0  0  0  0  0  0  0  0  0
    9.1560    5.0150   22.6550 N   0  0  0  0  0  0  0  0  0  0  0  0
    6.0460   -2.0330   18.7080 C   0  0  0  0  0  0  0  0  0  0  0  0
    5.2940   -4.1460   19.6530 O   0  0  0  0  0  0  0  0  0  0  0  0
    5.8000   -3.0380   19.8490 C   0  0  0  0  0  0  0  0  0  0  0  0
    8.9200   -2.4190   24.2020 C   0  0  0  0  0  0  0  0  0  0  0  0
   11.9070    0.4380   23.3550 C   0  0  0  0  0  0  0  0  0  0  0  0
   12.4880    1.7440   23.1320 C   0  0  0  0  0  0  0  0  0  0  0  0
   12.3700    2.9160   23.1230 C   0  0  0  0  0  0  0  0  0  0  0  0
   11.1020    3.3450   23.4990 C   0  0  0  0  0  0  0  0  0  0  0  0
   10.2310    2.2400   23.8050 C   0  0  0  0  0  0  0  0  0  0  0  0
   10.6100    0.8270   23.7280 C   0  0  0  0  0  0  0  0  0  0  0  0
    6.2450   -2.5520   21.0740 N   0  0  0  0  0  0  0  0  0  0  0  0
    7.2660   -1.5010   21.1220 C   0  0  0  0  0  0  0  0  0  0  0  0
    8.3300   -1.8470   21.9400 C   0  0  0  0  0  0  0  0  0  0  0  0
    7.8950   -2.3670   23.1920 N   0  0  0  0  0  0  0  0  0  0  0  0
    7.2470   -3.6220   22.9680 C   0  0  0  0  0  0  0  0  0  0  0  0
    5.9360   -3.3370   22.2630 C   0  0  0  0  0  0  0  0  0  0  0  0
    9.6530   -0.0810   24.0240 C   0  0  0  0  0  0  0  0  0  0  0  0
   12.5450   -0.9480   23.2040 C   0  0  0  0  0  0  0  0  0  0  0  0
   11.3610   -1.7900   23.5190 C   0  0  0  0  0  0  0  0  0  0  0  0
    9.9520   -1.3920   23.9270 C   0  0  0  0  0  0  0  0  0  0  0  0
  1  2  1  0
  2  3  1  0
  3  4  2  0
  5  6  2  0
  5  7  2  0
  5  8  1  0
  9 11  1  0
 10 11  2  0
 13 14  2  0
 14 15  1  0
  5 16  1  0
 15 16  2  0
 16 17  1  0
 13 18  1  0
 17 18  2  0
 11 19  1  0
 19 20  1  0
 20 21  1  0
 12 22  1  0
 21 22  1  0
 22 23  1  0
 19 24  1  0
 23 24  1  0
 18 25  1  0
  3 26  1  0
 13 26  1  0
 26 27  2  0
 12 28  1  0
 25 28  2  0
 27 28  1  0
M  END
