x0165-x0691
     RDKit          3D

 19 20  0  0  0  0  0  0  0  0999 V2000
    3.9830   -6.7530   25.7300 O   0  0  0  0  0  0  0  0  0  0  0  0
    5.7660   -5.2390   26.6500 O   0  0  0  0  0  0  0  0  0  0  0  0
    5.3680   -4.4720   19.8200 O   0  0  0  0  0  0  0  0  0  0  0  0
    6.0480   -4.2650   20.8270 C   0  0  0  0  0  0  0  0  0  0  0  0
    6.5780   -2.8480   21.1250 C   0  0  0  0  0  0  0  0  0  0  0  0
    3.0910   -0.4350   26.0150 F   0  0  0  0  0  0  0  0  0  0  0  0
    4.7150   -5.5030   25.6970 S   0  0  0  0  0  0  0  0  0  0  0  0
    2.8410   -1.7460   25.9350 C   0  0  0  0  0  0  0  0  0  0  0  0
    3.9370   -2.7940   25.8650 C   0  0  0  0  0  0  0  0  0  0  0  0
    3.3750   -3.9970   25.7900 C   0  0  0  0  0  0  0  0  0  0  0  0
    2.0560   -4.6590   25.7490 C   0  0  0  0  0  0  0  0  0  0  0  0
    1.0850   -3.6340   25.8180 C   0  0  0  0  0  0  0  0  0  0  0  0
    1.4780   -2.2310   25.9090 C   0  0  0  0  0  0  0  0  0  0  0  0
    6.3950   -5.2600   21.7190 N   0  0  0  0  0  0  0  0  0  0  0  0
    5.6050   -6.4280   22.0230 C   0  0  0  0  0  0  0  0  0  0  0  0
    4.7100   -6.1440   23.0410 C   0  0  0  0  0  0  0  0  0  0  0  0
    5.2950   -5.2750   24.1170 N   0  0  0  0  0  0  0  0  0  0  0  0
    6.7760   -4.9930   24.0420 C   0  0  0  0  0  0  0  0  0  0  0  0
    7.3510   -4.9800   22.7680 C   0  0  0  0  0  0  0  0  0  0  0  0
  3  4  2  0
  4  5  1  0
  1  7  2  0
  2  7  2  0
  6  8  1  0
  8  9  2  0
  7 10  1  0
  9 10  1  0
 10 11  2  0
 11 12  1  0
  8 13  1  0
 12 13  2  0
  4 14  1  0
 14 15  1  0
 15 16  1  0
  7 17  1  0
 16 17  1  0
 17 18  1  0
 14 19  1  0
 18 19  1  0
M  END
