x0165-x0499
     RDKit          3D

 17 18  0  0  0  0  0  0  0  0999 V2000
   26.0000    6.3330   13.7500 N   0  0  0  0  0  0  0  0  0  0  0  0
   25.7610    4.9820   13.6080 C   0  0  0  0  0  0  0  0  0  0  0  0
   25.9280    4.0490   14.6740 O   0  0  0  0  0  0  0  0  0  0  0  0
   24.1060    3.6530    8.2140 N   0  0  0  0  0  0  0  0  0  0  0  0
   23.1920    2.7040    7.8330 C   0  0  0  0  0  0  0  0  0  0  0  0
   22.1700    2.3740    8.4130 O   0  0  0  0  0  0  0  0  0  0  0  0
   25.3260    4.6100   12.2190 C   0  0  0  0  0  0  0  0  0  0  0  0
   24.8620    3.1930   11.8970 C   0  0  0  0  0  0  0  0  0  0  0  0
   24.4560    2.8160   10.6250 C   0  0  0  0  0  0  0  0  0  0  0  0
   24.5150    3.9340    9.5880 C   0  0  0  0  0  0  0  0  0  0  0  0
   24.9470    5.2290    9.9080 C   0  0  0  0  0  0  0  0  0  0  0  0
   25.3460    5.5650   11.2070 C   0  0  0  0  0  0  0  0  0  0  0  0
   22.7980    1.4610    5.7110 C   0  0  0  0  0  0  0  0  0  0  0  0
   23.6900    2.0840    6.5290 C   0  0  1  0  0  0  0  0  0  0  0  0
   24.2420    3.0540    5.6370 O   0  0  0  0  0  0  0  0  0  0  0  0
   24.1130    2.4960    4.4030 C   0  0  0  0  0  0  0  0  0  0  0  0
   23.3820    1.2830    4.5190 C   0  0  0  0  0  0  0  0  0  0  0  0
  1  2  1  0
  2  3  2  0
  4  5  1  0
  5  6  2  0
  2  7  1  0
  7  8  2  0
  8  9  1  0
  4 10  1  0
  9 10  2  0
 10 11  1  0
  7 12  1  0
 11 12  2  0
 14  5  1  1
 13 14  1  0
 14 15  1  0
 15 16  1  0
 13 17  1  0
 16 17  1  0
M  END
