x0161-x1458
     RDKit          3D

 16 16  0  0  0  0  0  0  0  0999 V2000
    7.1340   -3.5540   26.2780 N   0  0  0  0  0  0  0  0  0  0  0  0
    8.8440   -4.9310   27.3220 C   0  0  0  0  0  0  0  0  0  0  0  0
    4.8230   -3.2520   25.6530 O   0  0  0  0  0  0  0  0  0  0  0  0
    7.4670   -4.8170   26.7710 C   0  0  0  0  0  0  0  0  0  0  0  0
    5.3530   -4.7760   19.7720 O   0  0  0  0  0  0  0  0  0  0  0  0
    6.5070   -5.4040   27.7220 C   0  0  0  0  0  0  0  0  0  0  0  0
    7.6810   -2.4310   26.8980 C   0  0  0  0  0  0  0  0  0  0  0  0
    6.1240   -3.5000   25.3110 C   0  0  0  0  0  0  0  0  0  0  0  0
    6.1520   -3.9980   20.2700 C   0  0  0  0  0  0  0  0  0  0  0  0
    6.3890   -2.6940   19.6520 C   0  0  0  0  0  0  0  0  0  0  0  0
    6.7840   -4.2710   21.4730 N   0  0  0  0  0  0  0  0  0  0  0  0
    7.6790   -3.2670   22.0940 C   0  0  0  0  0  0  0  0  0  0  0  0
    7.5950   -3.2130   23.4790 C   0  0  0  0  0  0  0  0  0  0  0  0
    6.3570   -3.6730   23.9540 C   0  0  0  0  0  0  0  0  0  0  0  0
    6.1770   -5.0220   23.6390 C   0  0  0  0  0  0  0  0  0  0  0  0
    6.1810   -5.3240   22.2850 C   0  0  0  0  0  0  0  0  0  0  0  0
  1  4  1  0
  2  4  1  0
  4  6  1  0
  1  7  1  0
  1  8  1  0
  3  8  2  0
  5  9  2  0
  9 10  1  0
  9 11  1  0
 11 12  1  0
 12 13  1  0
  8 14  1  0
 13 14  1  0
 14 15  1  0
 11 16  1  0
 15 16  1  0
M  END
