x0165-x0540
     RDKit          3D

 18 19  0  0  0  0  0  0  0  0999 V2000
    2.8180    1.5020   24.4050 O   0  0  0  0  0  0  0  0  0  0  0  0
    2.8820    2.3450   23.5130 C   0  0  0  0  0  0  0  0  0  0  0  0
    3.9710    2.4980   22.6550 N   0  0  0  0  0  0  0  0  0  0  0  0
    4.9920    1.4380   22.5230 C   0  0  0  0  0  0  0  0  0  0  0  0
    4.4890    0.3610   21.5930 C   0  0  0  0  0  0  0  0  0  0  0  0
    1.8920    3.2620   23.2200 N   0  0  0  0  0  0  0  0  0  0  0  0
    6.2040   -0.3720   20.0390 C   0  0  0  0  0  0  0  0  0  0  0  0
    6.7530   -0.2710   18.7610 C   0  0  0  0  0  0  0  0  0  0  0  0
    6.2690    0.5350   17.7940 N   0  0  0  0  0  0  0  0  0  0  0  0
    5.1830    1.2790   18.1010 C   0  0  0  0  0  0  0  0  0  0  0  0
    4.5690    1.2440   19.3500 C   0  0  0  0  0  0  0  0  0  0  0  0
    5.0860    0.4060   20.3400 C   0  0  0  0  0  0  0  0  0  0  0  0
    0.5340    4.6330   24.5440 C   0  0  0  0  0  0  0  0  0  0  0  0
   -0.7220    4.9500   25.0600 C   0  0  0  0  0  0  0  0  0  0  0  0
   -1.7830    4.6840   24.1860 C   0  0  0  0  0  0  0  0  0  0  0  0
   -1.8620    3.3550   23.7580 C   0  0  0  0  0  0  0  0  0  0  0  0
   -0.5240    2.8130   23.2240 C   0  0  0  0  0  0  0  0  0  0  0  0
    0.6670    3.3420   24.0170 C   0  0  0  0  0  0  0  0  0  0  0  0
  1  2  2  0
  2  3  1  0
  3  4  1  0
  4  5  1  0
  2  6  1  0
  7  8  2  0
  8  9  1  0
  9 10  2  0
 10 11  1  0
  5 12  1  0
  7 12  1  0
 11 12  2  0
 13 14  1  0
 14 15  1  0
 15 16  1  0
 16 17  1  0
  6 18  1  0
 13 18  1  0
 17 18  1  0
M  END
