x0177-x0755
     RDKit          3D

 20 21  0  0  0  0  0  0  0  0999 V2000
    4.3960   -6.3390   26.2400 O   0  0  0  0  0  0  0  0  0  0  0  0
    6.0570   -4.5750   26.8660 O   0  0  0  0  0  0  0  0  0  0  0  0
    5.4880   -4.4700   19.8800 O   0  0  0  0  0  0  0  0  0  0  0  0
    6.3520   -4.3130   20.7480 C   0  0  0  0  0  0  0  0  0  0  0  0
    7.2450   -3.0810   20.7890 C   0  0  0  0  0  0  0  0  0  0  0  0
    2.1070   -5.4530   25.7410 F   0  0  0  0  0  0  0  0  0  0  0  0
    5.4940   -1.9820   26.1400 F   0  0  0  0  0  0  0  0  0  0  0  0
    5.0310   -5.0680   25.9840 S   0  0  0  0  0  0  0  0  0  0  0  0
    2.4650   -4.1650   25.8250 C   0  0  0  0  0  0  0  0  0  0  0  0
    3.8280   -3.8110   25.9400 C   0  0  0  0  0  0  0  0  0  0  0  0
    4.2150   -2.3590   26.0330 C   0  0  0  0  0  0  0  0  0  0  0  0
    3.2500   -1.3580   26.0140 C   0  0  0  0  0  0  0  0  0  0  0  0
    1.9150   -1.6970   25.9080 C   0  0  0  0  0  0  0  0  0  0  0  0
    1.4920   -3.1580   25.8030 C   0  0  0  0  0  0  0  0  0  0  0  0
    6.6270   -5.2180   21.7500 N   0  0  0  0  0  0  0  0  0  0  0  0
    7.5350   -4.7790   22.8350 C   0  0  0  0  0  0  0  0  0  0  0  0
    6.6910   -4.1600   23.9420 C   0  0  0  0  0  0  0  0  0  0  0  0
    5.6750   -5.1620   24.4040 N   0  0  0  0  0  0  0  0  0  0  0  0
    4.7790   -5.6830   23.3210 C   0  0  0  0  0  0  0  0  0  0  0  0
    5.6640   -6.2370   22.1800 C   0  0  0  0  0  0  0  0  0  0  0  0
  3  4  2  0
  4  5  1  0
  1  8  2  0
  2  8  2  0
  6  9  1  0
  8 10  1  0
  9 10  2  0
  7 11  1  0
 10 11  1  0
 11 12  2  0
 12 13  1  0
  9 14  1  0
 13 14  2  0
  4 15  1  0
 15 16  1  0
 16 17  1  0
  8 18  1  0
 17 18  1  0
 18 19  1  0
 15 20  1  0
 19 20  1  0
M  END
