x0177-x0350
     RDKit          3D

 18 19  0  0  0  0  0  0  0  0999 V2000
   23.6380  -16.7810   25.9680 N   0  0  0  0  0  0  0  0  0  0  0  0
   24.4370  -17.6490   25.2890 C   0  0  0  0  0  0  0  0  0  0  0  0
   25.5740  -17.9290   25.6580 O   0  0  0  0  0  0  0  0  0  0  0  0
   22.6750  -21.9690   22.2270 C   0  0  0  0  0  0  0  0  0  0  0  0
   21.5670  -22.4160   22.5520 O   0  0  0  0  0  0  0  0  0  0  0  0
   23.2830  -22.3410   21.0360 N   0  0  0  0  0  0  0  0  0  0  0  0
   23.8610  -18.2550   24.0440 C   0  0  0  0  0  0  0  0  0  0  0  0
   22.6280  -18.9300   24.1090 C   0  0  0  0  0  0  0  0  0  0  0  0
   22.6850  -20.4340   24.1960 C   0  0  0  0  0  0  0  0  0  0  0  0
   23.3670  -21.0080   23.0400 N   0  0  0  0  0  0  0  0  0  0  0  0
   24.2750  -20.0460   22.3990 C   0  0  0  0  0  0  0  0  0  0  0  0
   24.8630  -19.1960   23.3520 C   0  0  0  0  0  0  0  0  0  0  0  0
   22.5160  -22.9760   18.7620 C   0  0  0  0  0  0  0  0  0  0  0  0
   21.9010  -24.0070   17.8310 C   0  0  0  0  0  0  0  0  0  0  0  0
   21.4860  -25.3680   18.3650 C   0  0  0  0  0  0  0  0  0  0  0  0
   21.7140  -25.6300   19.8480 C   0  0  0  0  0  0  0  0  0  0  0  0
   22.3510  -24.5000   20.6980 C   0  0  0  0  0  0  0  0  0  0  0  0
   22.7110  -23.2630   20.1240 C   0  0  0  0  0  0  0  0  0  0  0  0
  1  2  1  0
  2  3  2  0
  4  5  2  0
  4  6  1  0
  2  7  1  0
  7  8  1  0
  8  9  1  0
  4 10  1  0
  9 10  1  0
 10 11  1  0
  7 12  1  0
 11 12  1  0
 13 14  2  0
 14 15  1  0
 15 16  2  0
 16 17  1  0
  6 18  1  0
 13 18  1  0
 17 18  2  0
M  END
