x0177-x1386
     RDKit          3D

 18 19  0  0  0  0  0  0  0  0999 V2000
   23.6690  -16.7050   25.6820 N   0  0  0  0  0  0  0  0  0  0  0  0
   24.5700  -17.6840   25.3690 C   0  0  0  0  0  0  0  0  0  0  0  0
   25.7400  -17.6350   25.7290 O   0  0  0  0  0  0  0  0  0  0  0  0
   22.7360  -21.9900   22.1590 C   0  0  0  0  0  0  0  0  0  0  0  0
   21.6320  -22.4660   22.4660 O   0  0  0  0  0  0  0  0  0  0  0  0
   23.3560  -22.3520   20.9770 N   0  0  0  0  0  0  0  0  0  0  0  0
   24.0870  -18.8640   24.5800 C   0  0  0  0  0  0  0  0  0  0  0  0
   22.7420  -19.0370   24.2930 C   0  0  0  0  0  0  0  0  0  0  0  0
   22.4400  -20.4620   23.9740 C   0  0  0  0  0  0  0  0  0  0  0  0
   23.3650  -21.0100   22.9970 N   0  0  0  0  0  0  0  0  0  0  0  0
   24.2480  -20.0010   22.3580 C   0  0  0  0  0  0  0  0  0  0  0  0
   24.8100  -19.0290   23.2270 C   0  0  0  0  0  0  0  0  0  0  0  0
   22.5590  -22.9870   18.7170 C   0  0  0  0  0  0  0  0  0  0  0  0
   21.9170  -24.0170   17.8030 C   0  0  0  0  0  0  0  0  0  0  0  0
   21.4880  -25.3650   18.3500 C   0  0  0  0  0  0  0  0  0  0  0  0
   21.7250  -25.6230   19.8340 C   0  0  0  0  0  0  0  0  0  0  0  0
   22.3870  -24.4950   20.6650 C   0  0  0  0  0  0  0  0  0  0  0  0
   22.7630  -23.2690   20.0790 C   0  0  0  0  0  0  0  0  0  0  0  0
  1  2  1  0
  2  3  2  0
  4  5  2  0
  4  6  1  0
  2  7  1  0
  7  8  1  0
  8  9  1  0
  4 10  1  0
  9 10  1  0
 10 11  1  0
  7 12  1  0
 11 12  1  0
 13 14  2  0
 14 15  1  0
 15 16  2  0
 16 17  1  0
  6 18  1  0
 13 18  1  0
 17 18  2  0
M  END
