x0336-x0736
     RDKit          3D

 15 15  0  0  0  0  0  0  0  0999 V2000
    5.3590  -30.0600   10.8380 C   0  0  0  0  0  0  0  0  0  0  0  0
    4.9070  -29.8690    9.4120 C   0  0  0  0  0  0  0  0  0  0  0  0
    4.7890  -30.8470    8.6770 O   0  0  0  0  0  0  0  0  0  0  0  0
    4.6230  -28.5810    8.9780 N   0  0  0  0  0  0  0  0  0  0  0  0
    5.0440  -27.3550    9.6860 C   0  0  0  0  0  0  0  0  0  0  0  0
    1.3750  -22.5040    9.1590 S   0  0  0  0  0  0  0  0  0  0  0  0
    1.7550  -21.4900   10.1000 O   0  0  0  0  0  0  0  0  0  0  0  0
    0.0520  -23.0760    9.1780 O   0  0  0  0  0  0  0  0  0  0  0  0
    1.6430  -21.8910    7.6100 N   0  0  0  0  0  0  0  0  0  0  0  0
    4.1930  -26.2370    9.5440 C   0  0  0  0  0  0  0  0  0  0  0  0
    3.7320  -25.6930    8.2170 C   0  0  0  0  0  0  0  0  0  0  0  0
    2.9230  -24.6120    8.1300 C   0  0  0  0  0  0  0  0  0  0  0  0
    2.4460  -23.9190    9.3950 C   0  0  0  0  0  0  0  0  0  0  0  0
    2.8970  -24.4710   10.6000 C   0  0  0  0  0  0  0  0  0  0  0  0
    3.7480  -25.5890   10.7000 C   0  0  0  0  0  0  0  0  0  0  0  0
  1  2  1  0
  2  3  2  0
  2  4  1  0
  4  5  1  0
  6  7  2  0
  6  8  2  0
  6  9  1  0
  5 10  1  0
 10 11  2  0
 11 12  1  0
  6 13  1  0
 12 13  2  0
 13 14  1  0
 10 15  1  0
 14 15  2  0
M  END
