x0336-x0426
     RDKit          3D

 15 15  0  0  0  0  0  0  0  0999 V2000
    5.3520  -30.0550   10.8360 C   0  0  0  0  0  0  0  0  0  0  0  0
    4.9030  -29.8670    9.4080 C   0  0  0  0  0  0  0  0  0  0  0  0
    4.7850  -30.8450    8.6740 O   0  0  0  0  0  0  0  0  0  0  0  0
    4.6250  -28.5780    8.9730 N   0  0  0  0  0  0  0  0  0  0  0  0
    5.0390  -27.3550    9.6900 C   0  0  0  0  0  0  0  0  0  0  0  0
    1.3720  -22.5030    9.1560 S   0  0  0  0  0  0  0  0  0  0  0  0
    1.7480  -21.4890   10.1010 O   0  0  0  0  0  0  0  0  0  0  0  0
    0.0500  -23.0800    9.1710 O   0  0  0  0  0  0  0  0  0  0  0  0
    1.6430  -21.8870    7.6070 N   0  0  0  0  0  0  0  0  0  0  0  0
    4.1910  -26.2370    9.5460 C   0  0  0  0  0  0  0  0  0  0  0  0
    3.7280  -25.6980    8.2190 C   0  0  0  0  0  0  0  0  0  0  0  0
    2.9190  -24.6160    8.1330 C   0  0  0  0  0  0  0  0  0  0  0  0
    2.4410  -23.9190    9.3950 C   0  0  0  0  0  0  0  0  0  0  0  0
    2.8960  -24.4710   10.5990 C   0  0  0  0  0  0  0  0  0  0  0  0
    3.7470  -25.5880   10.7020 C   0  0  0  0  0  0  0  0  0  0  0  0
  1  2  1  0
  2  3  2  0
  2  4  1  0
  4  5  1  0
  6  7  2  0
  6  8  2  0
  6  9  1  0
  5 10  1  0
 10 11  2  0
 11 12  1  0
  6 13  1  0
 12 13  2  0
 13 14  1  0
 10 15  1  0
 14 15  2  0
M  END
