x0336-x1493
     RDKit          3D

 15 15  0  0  0  0  0  0  0  0999 V2000
    5.3570  -30.0580   10.8380 C   0  0  0  0  0  0  0  0  0  0  0  0
    4.9020  -29.8690    9.4090 C   0  0  0  0  0  0  0  0  0  0  0  0
    4.7870  -30.8430    8.6750 O   0  0  0  0  0  0  0  0  0  0  0  0
    4.6210  -28.5800    8.9790 N   0  0  0  0  0  0  0  0  0  0  0  0
    5.0410  -27.3540    9.6870 C   0  0  0  0  0  0  0  0  0  0  0  0
    1.3720  -22.5070    9.1600 S   0  0  0  0  0  0  0  0  0  0  0  0
    1.7570  -21.4900   10.0960 O   0  0  0  0  0  0  0  0  0  0  0  0
    0.0460  -23.0800    9.1850 O   0  0  0  0  0  0  0  0  0  0  0  0
    1.6300  -21.9010    7.6070 N   0  0  0  0  0  0  0  0  0  0  0  0
    4.1910  -26.2380    9.5440 C   0  0  0  0  0  0  0  0  0  0  0  0
    3.7270  -25.6980    8.2180 C   0  0  0  0  0  0  0  0  0  0  0  0
    2.9150  -24.6150    8.1320 C   0  0  0  0  0  0  0  0  0  0  0  0
    2.4410  -23.9220    9.3960 C   0  0  0  0  0  0  0  0  0  0  0  0
    2.8950  -24.4740   10.6040 C   0  0  0  0  0  0  0  0  0  0  0  0
    3.7480  -25.5920   10.6990 C   0  0  0  0  0  0  0  0  0  0  0  0
  1  2  1  0
  2  3  2  0
  2  4  1  0
  4  5  1  0
  6  7  2  0
  6  8  2  0
  6  9  1  0
  5 10  1  0
 10 11  2  0
 11 12  1  0
  6 13  1  0
 12 13  2  0
 13 14  1  0
 10 15  1  0
 14 15  2  0
M  END
