x0336-x0749
     RDKit          3D

 15 15  0  0  0  0  0  0  0  0999 V2000
    5.3590  -30.0540   10.8380 C   0  0  0  0  0  0  0  0  0  0  0  0
    4.9040  -29.8690    9.4090 C   0  0  0  0  0  0  0  0  0  0  0  0
    4.7860  -30.8450    8.6790 O   0  0  0  0  0  0  0  0  0  0  0  0
    4.6320  -28.5800    8.9720 N   0  0  0  0  0  0  0  0  0  0  0  0
    5.0400  -27.3570    9.6890 C   0  0  0  0  0  0  0  0  0  0  0  0
    1.3720  -22.5060    9.1620 S   0  0  0  0  0  0  0  0  0  0  0  0
    1.7490  -21.4930   10.1030 O   0  0  0  0  0  0  0  0  0  0  0  0
    0.0520  -23.0810    9.1720 O   0  0  0  0  0  0  0  0  0  0  0  0
    1.6480  -21.8950    7.6120 N   0  0  0  0  0  0  0  0  0  0  0  0
    4.1920  -26.2380    9.5440 C   0  0  0  0  0  0  0  0  0  0  0  0
    3.7330  -25.6950    8.2180 C   0  0  0  0  0  0  0  0  0  0  0  0
    2.9220  -24.6110    8.1330 C   0  0  0  0  0  0  0  0  0  0  0  0
    2.4440  -23.9180    9.3940 C   0  0  0  0  0  0  0  0  0  0  0  0
    2.8960  -24.4730   10.6010 C   0  0  0  0  0  0  0  0  0  0  0  0
    3.7460  -25.5920   10.6990 C   0  0  0  0  0  0  0  0  0  0  0  0
  1  2  1  0
  2  3  2  0
  2  4  1  0
  4  5  1  0
  6  7  2  0
  6  8  2  0
  6  9  1  0
  5 10  1  0
 10 11  2  0
 11 12  1  0
  6 13  1  0
 12 13  2  0
 13 14  1  0
 10 15  1  0
 14 15  2  0
M  END
