x0336-x0305
     RDKit          3D

 15 15  0  0  0  0  0  0  0  0999 V2000
    5.3490  -30.0670   10.8280 C   0  0  0  0  0  0  0  0  0  0  0  0
    4.8880  -29.8650    9.4030 C   0  0  0  0  0  0  0  0  0  0  0  0
    4.7640  -30.8360    8.6630 O   0  0  0  0  0  0  0  0  0  0  0  0
    4.6130  -28.5710    8.9830 N   0  0  0  0  0  0  0  0  0  0  0  0
    5.0310  -27.3530    9.7050 C   0  0  0  0  0  0  0  0  0  0  0  0
    1.3820  -22.4960    9.1370 S   0  0  0  0  0  0  0  0  0  0  0  0
    1.7500  -21.4950   10.0970 O   0  0  0  0  0  0  0  0  0  0  0  0
    0.0540  -23.0660    9.1280 O   0  0  0  0  0  0  0  0  0  0  0  0
    1.6750  -21.8620    7.5980 N   0  0  0  0  0  0  0  0  0  0  0  0
    4.1850  -26.2370    9.5510 C   0  0  0  0  0  0  0  0  0  0  0  0
    3.7190  -25.7090    8.2180 C   0  0  0  0  0  0  0  0  0  0  0  0
    2.9120  -24.6250    8.1230 C   0  0  0  0  0  0  0  0  0  0  0  0
    2.4430  -23.9120    9.3820 C   0  0  0  0  0  0  0  0  0  0  0  0
    2.8990  -24.4540   10.5920 C   0  0  0  0  0  0  0  0  0  0  0  0
    3.7460  -25.5720   10.7010 C   0  0  0  0  0  0  0  0  0  0  0  0
  1  2  1  0
  2  3  2  0
  2  4  1  0
  4  5  1  0
  6  7  2  0
  6  8  2  0
  6  9  1  0
  5 10  1  0
 10 11  2  0
 11 12  1  0
  6 13  1  0
 12 13  2  0
 13 14  1  0
 10 15  1  0
 14 15  2  0
M  END
