x0336-x0376
     RDKit          3D

 15 15  0  0  0  0  0  0  0  0999 V2000
    5.3680  -30.0560   10.8330 C   0  0  0  0  0  0  0  0  0  0  0  0
    4.9020  -29.8720    9.4100 C   0  0  0  0  0  0  0  0  0  0  0  0
    4.7810  -30.8510    8.6770 O   0  0  0  0  0  0  0  0  0  0  0  0
    4.6160  -28.5810    8.9810 N   0  0  0  0  0  0  0  0  0  0  0  0
    5.0350  -27.3590    9.6930 C   0  0  0  0  0  0  0  0  0  0  0  0
    1.3840  -22.5030    9.1470 S   0  0  0  0  0  0  0  0  0  0  0  0
    1.7470  -21.4910   10.0960 O   0  0  0  0  0  0  0  0  0  0  0  0
    0.0610  -23.0820    9.1380 O   0  0  0  0  0  0  0  0  0  0  0  0
    1.6780  -21.8780    7.6040 N   0  0  0  0  0  0  0  0  0  0  0  0
    4.1900  -26.2390    9.5530 C   0  0  0  0  0  0  0  0  0  0  0  0
    3.7330  -25.7010    8.2250 C   0  0  0  0  0  0  0  0  0  0  0  0
    2.9260  -24.6170    8.1360 C   0  0  0  0  0  0  0  0  0  0  0  0
    2.4490  -23.9170    9.3950 C   0  0  0  0  0  0  0  0  0  0  0  0
    2.8990  -24.4670   10.6030 C   0  0  0  0  0  0  0  0  0  0  0  0
    3.7470  -25.5880   10.7050 C   0  0  0  0  0  0  0  0  0  0  0  0
  1  2  1  0
  2  3  2  0
  2  4  1  0
  4  5  1  0
  6  7  2  0
  6  8  2  0
  6  9  1  0
  5 10  1  0
 10 11  2  0
 11 12  1  0
  6 13  1  0
 12 13  2  0
 13 14  1  0
 10 15  1  0
 14 15  2  0
M  END
