x0336-x0397
     RDKit          3D

 15 15  0  0  0  0  0  0  0  0999 V2000
    5.3450  -30.0590   10.8270 C   0  0  0  0  0  0  0  0  0  0  0  0
    4.8880  -29.8590    9.4010 C   0  0  0  0  0  0  0  0  0  0  0  0
    4.7620  -30.8300    8.6610 O   0  0  0  0  0  0  0  0  0  0  0  0
    4.6180  -28.5660    8.9780 N   0  0  0  0  0  0  0  0  0  0  0  0
    5.0320  -27.3480    9.6990 C   0  0  0  0  0  0  0  0  0  0  0  0
    1.3680  -22.5010    9.1480 S   0  0  0  0  0  0  0  0  0  0  0  0
    1.7590  -21.4920   10.0880 O   0  0  0  0  0  0  0  0  0  0  0  0
    0.0460  -23.0730    9.1760 O   0  0  0  0  0  0  0  0  0  0  0  0
    1.6160  -21.8810    7.5960 N   0  0  0  0  0  0  0  0  0  0  0  0
    4.1850  -26.2350    9.5480 C   0  0  0  0  0  0  0  0  0  0  0  0
    3.7120  -25.7100    8.2160 C   0  0  0  0  0  0  0  0  0  0  0  0
    2.9020  -24.6270    8.1240 C   0  0  0  0  0  0  0  0  0  0  0  0
    2.4380  -23.9160    9.3850 C   0  0  0  0  0  0  0  0  0  0  0  0
    2.9010  -24.4560   10.5960 C   0  0  0  0  0  0  0  0  0  0  0  0
    3.7490  -25.5720   10.6990 C   0  0  0  0  0  0  0  0  0  0  0  0
  1  2  1  0
  2  3  2  0
  2  4  1  0
  4  5  1  0
  6  7  2  0
  6  8  2  0
  6  9  1  0
  5 10  1  0
 10 11  2  0
 11 12  1  0
  6 13  1  0
 12 13  2  0
 13 14  1  0
 10 15  1  0
 14 15  2  0
M  END
