x0336-x0194
     RDKit          3D

 15 15  0  0  0  0  0  0  0  0999 V2000
    5.3700  -30.0560   10.8350 C   0  0  0  0  0  0  0  0  0  0  0  0
    4.9030  -29.8720    9.4130 C   0  0  0  0  0  0  0  0  0  0  0  0
    4.7860  -30.8470    8.6810 O   0  0  0  0  0  0  0  0  0  0  0  0
    4.6220  -28.5830    8.9800 N   0  0  0  0  0  0  0  0  0  0  0  0
    5.0390  -27.3580    9.6900 C   0  0  0  0  0  0  0  0  0  0  0  0
    1.3820  -22.5010    9.1510 S   0  0  0  0  0  0  0  0  0  0  0  0
    1.7490  -21.4900   10.1010 O   0  0  0  0  0  0  0  0  0  0  0  0
    0.0570  -23.0750    9.1460 O   0  0  0  0  0  0  0  0  0  0  0  0
    1.6790  -21.8810    7.6070 N   0  0  0  0  0  0  0  0  0  0  0  0
    4.1930  -26.2380    9.5470 C   0  0  0  0  0  0  0  0  0  0  0  0
    3.7370  -25.6970    8.2190 C   0  0  0  0  0  0  0  0  0  0  0  0
    2.9280  -24.6140    8.1300 C   0  0  0  0  0  0  0  0  0  0  0  0
    2.4510  -23.9200    9.3910 C   0  0  0  0  0  0  0  0  0  0  0  0
    2.8980  -24.4720   10.6010 C   0  0  0  0  0  0  0  0  0  0  0  0
    3.7470  -25.5910   10.6990 C   0  0  0  0  0  0  0  0  0  0  0  0
  1  2  1  0
  2  3  2  0
  2  4  1  0
  4  5  1  0
  6  7  2  0
  6  8  2  0
  6  9  1  0
  5 10  1  0
 10 11  2  0
 11 12  1  0
  6 13  1  0
 12 13  2  0
 13 14  1  0
 10 15  1  0
 14 15  2  0
M  END
