x0336-x0072
     RDKit          3D

 15 15  0  0  0  0  0  0  0  0999 V2000
    5.3580  -30.0510   10.8270 C   0  0  0  0  0  0  0  0  0  0  0  0
    4.8930  -29.8630    9.4030 C   0  0  0  0  0  0  0  0  0  0  0  0
    4.7630  -30.8390    8.6720 O   0  0  0  0  0  0  0  0  0  0  0  0
    4.6240  -28.5710    8.9750 N   0  0  0  0  0  0  0  0  0  0  0  0
    5.0390  -27.3530    9.6940 C   0  0  0  0  0  0  0  0  0  0  0  0
    1.3630  -22.5000    9.1530 S   0  0  0  0  0  0  0  0  0  0  0  0
    1.7480  -21.4840   10.0890 O   0  0  0  0  0  0  0  0  0  0  0  0
    0.0400  -23.0730    9.1810 O   0  0  0  0  0  0  0  0  0  0  0  0
    1.6180  -21.8880    7.5980 N   0  0  0  0  0  0  0  0  0  0  0  0
    4.1870  -26.2360    9.5460 C   0  0  0  0  0  0  0  0  0  0  0  0
    3.7170  -25.7070    8.2170 C   0  0  0  0  0  0  0  0  0  0  0  0
    2.9060  -24.6230    8.1300 C   0  0  0  0  0  0  0  0  0  0  0  0
    2.4360  -23.9160    9.3890 C   0  0  0  0  0  0  0  0  0  0  0  0
    2.8990  -24.4610   10.5960 C   0  0  0  0  0  0  0  0  0  0  0  0
    3.7520  -25.5800   10.6990 C   0  0  0  0  0  0  0  0  0  0  0  0
  1  2  1  0
  2  3  2  0
  2  4  1  0
  4  5  1  0
  6  7  2  0
  6  8  2  0
  6  9  1  0
  5 10  1  0
 10 11  2  0
 11 12  1  0
  6 13  1  0
 12 13  2  0
 13 14  1  0
 10 15  1  0
 14 15  2  0
M  END
