x0336-x0734
     RDKit          3D

 15 15  0  0  0  0  0  0  0  0999 V2000
    5.3580  -30.0570   10.8360 C   0  0  0  0  0  0  0  0  0  0  0  0
    4.9050  -29.8680    9.4100 C   0  0  0  0  0  0  0  0  0  0  0  0
    4.7830  -30.8450    8.6760 O   0  0  0  0  0  0  0  0  0  0  0  0
    4.6270  -28.5780    8.9710 N   0  0  0  0  0  0  0  0  0  0  0  0
    5.0410  -27.3570    9.6900 C   0  0  0  0  0  0  0  0  0  0  0  0
    1.3790  -22.5090    9.1550 S   0  0  0  0  0  0  0  0  0  0  0  0
    1.7600  -21.4920   10.0930 O   0  0  0  0  0  0  0  0  0  0  0  0
    0.0550  -23.0800    9.1750 O   0  0  0  0  0  0  0  0  0  0  0  0
    1.6480  -21.9070    7.6020 N   0  0  0  0  0  0  0  0  0  0  0  0
    4.1920  -26.2410    9.5450 C   0  0  0  0  0  0  0  0  0  0  0  0
    3.7320  -25.7020    8.2210 C   0  0  0  0  0  0  0  0  0  0  0  0
    2.9220  -24.6180    8.1350 C   0  0  0  0  0  0  0  0  0  0  0  0
    2.4450  -23.9220    9.3980 C   0  0  0  0  0  0  0  0  0  0  0  0
    2.8960  -24.4760   10.6040 C   0  0  0  0  0  0  0  0  0  0  0  0
    3.7460  -25.5930   10.7030 C   0  0  0  0  0  0  0  0  0  0  0  0
  1  2  1  0
  2  3  2  0
  2  4  1  0
  4  5  1  0
  6  7  2  0
  6  8  2  0
  6  9  1  0
  5 10  1  0
 10 11  2  0
 11 12  1  0
  6 13  1  0
 12 13  2  0
 13 14  1  0
 10 15  1  0
 14 15  2  0
M  END
