x0336-x0991
     RDKit          3D

 15 15  0  0  0  0  0  0  0  0999 V2000
    5.3620  -30.0550   10.8420 C   0  0  0  0  0  0  0  0  0  0  0  0
    4.9090  -29.8700    9.4120 C   0  0  0  0  0  0  0  0  0  0  0  0
    4.7970  -30.8490    8.6800 O   0  0  0  0  0  0  0  0  0  0  0  0
    4.6280  -28.5800    8.9750 N   0  0  0  0  0  0  0  0  0  0  0  0
    5.0440  -27.3560    9.6820 C   0  0  0  0  0  0  0  0  0  0  0  0
    1.3750  -22.5090    9.1670 S   0  0  0  0  0  0  0  0  0  0  0  0
    1.7610  -21.4900   10.1020 O   0  0  0  0  0  0  0  0  0  0  0  0
    0.0500  -23.0830    9.1930 O   0  0  0  0  0  0  0  0  0  0  0  0
    1.6320  -21.9070    7.6120 N   0  0  0  0  0  0  0  0  0  0  0  0
    4.1950  -26.2380    9.5430 C   0  0  0  0  0  0  0  0  0  0  0  0
    3.7350  -25.6900    8.2190 C   0  0  0  0  0  0  0  0  0  0  0  0
    2.9250  -24.6100    8.1360 C   0  0  0  0  0  0  0  0  0  0  0  0
    2.4460  -23.9220    9.4010 C   0  0  0  0  0  0  0  0  0  0  0  0
    2.8950  -24.4780   10.6060 C   0  0  0  0  0  0  0  0  0  0  0  0
    3.7460  -25.5950   10.7040 C   0  0  0  0  0  0  0  0  0  0  0  0
  1  2  1  0
  2  3  2  0
  2  4  1  0
  4  5  1  0
  6  7  2  0
  6  8  2  0
  6  9  1  0
  5 10  1  0
 10 11  2  0
 11 12  1  0
  6 13  1  0
 12 13  2  0
 13 14  1  0
 10 15  1  0
 14 15  2  0
M  END
