x0336-x0478
     RDKit          3D

 15 15  0  0  0  0  0  0  0  0999 V2000
    5.3570  -30.0610   10.8360 C   0  0  0  0  0  0  0  0  0  0  0  0
    4.9010  -29.8710    9.4090 C   0  0  0  0  0  0  0  0  0  0  0  0
    4.7820  -30.8480    8.6750 O   0  0  0  0  0  0  0  0  0  0  0  0
    4.6220  -28.5760    8.9830 N   0  0  0  0  0  0  0  0  0  0  0  0
    5.0380  -27.3570    9.6940 C   0  0  0  0  0  0  0  0  0  0  0  0
    1.3820  -22.4990    9.1480 S   0  0  0  0  0  0  0  0  0  0  0  0
    1.7520  -21.4900   10.1010 O   0  0  0  0  0  0  0  0  0  0  0  0
    0.0590  -23.0750    9.1430 O   0  0  0  0  0  0  0  0  0  0  0  0
    1.6800  -21.8780    7.6090 N   0  0  0  0  0  0  0  0  0  0  0  0
    4.1910  -26.2360    9.5470 C   0  0  0  0  0  0  0  0  0  0  0  0
    3.7330  -25.6980    8.2200 C   0  0  0  0  0  0  0  0  0  0  0  0
    2.9260  -24.6160    8.1290 C   0  0  0  0  0  0  0  0  0  0  0  0
    2.4500  -23.9150    9.3910 C   0  0  0  0  0  0  0  0  0  0  0  0
    2.9000  -24.4650   10.5970 C   0  0  0  0  0  0  0  0  0  0  0  0
    3.7470  -25.5840   10.6980 C   0  0  0  0  0  0  0  0  0  0  0  0
  1  2  1  0
  2  3  2  0
  2  4  1  0
  4  5  1  0
  6  7  2  0
  6  8  2  0
  6  9  1  0
  5 10  1  0
 10 11  2  0
 11 12  1  0
  6 13  1  0
 12 13  2  0
 13 14  1  0
 10 15  1  0
 14 15  2  0
M  END
