x0336-x1237
     RDKit          3D

 15 15  0  0  0  0  0  0  0  0999 V2000
    5.3590  -30.0580   10.8260 C   0  0  0  0  0  0  0  0  0  0  0  0
    4.8870  -29.8590    9.4040 C   0  0  0  0  0  0  0  0  0  0  0  0
    4.7550  -30.8330    8.6670 O   0  0  0  0  0  0  0  0  0  0  0  0
    4.6140  -28.5680    8.9800 N   0  0  0  0  0  0  0  0  0  0  0  0
    5.0320  -27.3500    9.7000 C   0  0  0  0  0  0  0  0  0  0  0  0
    1.3740  -22.5000    9.1420 S   0  0  0  0  0  0  0  0  0  0  0  0
    1.7600  -21.4910   10.0880 O   0  0  0  0  0  0  0  0  0  0  0  0
    0.0500  -23.0690    9.1600 O   0  0  0  0  0  0  0  0  0  0  0  0
    1.6400  -21.8810    7.5920 N   0  0  0  0  0  0  0  0  0  0  0  0
    4.1850  -26.2360    9.5490 C   0  0  0  0  0  0  0  0  0  0  0  0
    3.7140  -25.7130    8.2180 C   0  0  0  0  0  0  0  0  0  0  0  0
    2.9040  -24.6280    8.1230 C   0  0  0  0  0  0  0  0  0  0  0  0
    2.4410  -23.9160    9.3820 C   0  0  0  0  0  0  0  0  0  0  0  0
    2.9010  -24.4550   10.5920 C   0  0  0  0  0  0  0  0  0  0  0  0
    3.7490  -25.5710   10.7000 C   0  0  0  0  0  0  0  0  0  0  0  0
  1  2  1  0
  2  3  2  0
  2  4  1  0
  4  5  1  0
  6  7  2  0
  6  8  2  0
  6  9  1  0
  5 10  1  0
 10 11  2  0
 11 12  1  0
  6 13  1  0
 12 13  2  0
 13 14  1  0
 10 15  1  0
 14 15  2  0
M  END
