x0336-x1311
     RDKit          3D

 15 15  0  0  0  0  0  0  0  0999 V2000
    5.3540  -30.0560   10.8350 C   0  0  0  0  0  0  0  0  0  0  0  0
    4.9020  -29.8660    9.4040 C   0  0  0  0  0  0  0  0  0  0  0  0
    4.7800  -30.8470    8.6740 O   0  0  0  0  0  0  0  0  0  0  0  0
    4.6260  -28.5760    8.9720 N   0  0  0  0  0  0  0  0  0  0  0  0
    5.0410  -27.3540    9.6870 C   0  0  0  0  0  0  0  0  0  0  0  0
    1.3690  -22.5080    9.1630 S   0  0  0  0  0  0  0  0  0  0  0  0
    1.7570  -21.4860   10.0960 O   0  0  0  0  0  0  0  0  0  0  0  0
    0.0470  -23.0810    9.1950 O   0  0  0  0  0  0  0  0  0  0  0  0
    1.6170  -21.9060    7.6060 N   0  0  0  0  0  0  0  0  0  0  0  0
    4.1910  -26.2360    9.5420 C   0  0  0  0  0  0  0  0  0  0  0  0
    3.7260  -25.6990    8.2180 C   0  0  0  0  0  0  0  0  0  0  0  0
    2.9120  -24.6180    8.1310 C   0  0  0  0  0  0  0  0  0  0  0  0
    2.4420  -23.9220    9.3950 C   0  0  0  0  0  0  0  0  0  0  0  0
    2.8990  -24.4690   10.5980 C   0  0  0  0  0  0  0  0  0  0  0  0
    3.7510  -25.5860   10.6990 C   0  0  0  0  0  0  0  0  0  0  0  0
  1  2  1  0
  2  3  2  0
  2  4  1  0
  4  5  1  0
  6  7  2  0
  6  8  2  0
  6  9  1  0
  5 10  1  0
 10 11  2  0
 11 12  1  0
  6 13  1  0
 12 13  2  0
 13 14  1  0
 10 15  1  0
 14 15  2  0
M  END
