x0336-x1119
     RDKit          3D

 15 15  0  0  0  0  0  0  0  0999 V2000
    5.3640  -30.0570   10.8310 C   0  0  0  0  0  0  0  0  0  0  0  0
    4.8990  -29.8700    9.4090 C   0  0  0  0  0  0  0  0  0  0  0  0
    4.7720  -30.8460    8.6780 O   0  0  0  0  0  0  0  0  0  0  0  0
    4.6210  -28.5800    8.9760 N   0  0  0  0  0  0  0  0  0  0  0  0
    5.0390  -27.3590    9.6970 C   0  0  0  0  0  0  0  0  0  0  0  0
    1.3810  -22.4970    9.1420 S   0  0  0  0  0  0  0  0  0  0  0  0
    1.7470  -21.4920   10.0950 O   0  0  0  0  0  0  0  0  0  0  0  0
    0.0640  -23.0790    9.1390 O   0  0  0  0  0  0  0  0  0  0  0  0
    1.6750  -21.8720    7.5990 N   0  0  0  0  0  0  0  0  0  0  0  0
    4.1910  -26.2360    9.5490 C   0  0  0  0  0  0  0  0  0  0  0  0
    3.7290  -25.7030    8.2210 C   0  0  0  0  0  0  0  0  0  0  0  0
    2.9210  -24.6170    8.1290 C   0  0  0  0  0  0  0  0  0  0  0  0
    2.4490  -23.9140    9.3880 C   0  0  0  0  0  0  0  0  0  0  0  0
    2.9020  -24.4590   10.5980 C   0  0  0  0  0  0  0  0  0  0  0  0
    3.7510  -25.5790   10.7020 C   0  0  0  0  0  0  0  0  0  0  0  0
  1  2  1  0
  2  3  2  0
  2  4  1  0
  4  5  1  0
  6  7  2  0
  6  8  2  0
  6  9  1  0
  5 10  1  0
 10 11  2  0
 11 12  1  0
  6 13  1  0
 12 13  2  0
 13 14  1  0
 10 15  1  0
 14 15  2  0
M  END
