x0350-x0336
     RDKit          3D

 15 15  0  0  0  0  0  0  0  0999 V2000
    5.3180  -30.0090   10.8080 C   0  0  0  0  0  0  0  0  0  0  0  0
    4.8770  -29.8150    9.3480 C   0  0  0  0  0  0  0  0  0  0  0  0
    4.7410  -30.7880    8.6180 O   0  0  0  0  0  0  0  0  0  0  0  0
    4.6500  -28.5120    8.9460 N   0  0  0  0  0  0  0  0  0  0  0  0
    5.0600  -27.4300    9.6910 C   0  0  0  0  0  0  0  0  0  0  0  0
    1.3910  -22.5540    9.1770 S   0  0  0  0  0  0  0  0  0  0  0  0
    1.7990  -21.5140   10.0760 O   0  0  0  0  0  0  0  0  0  0  0  0
    0.0190  -22.9940    9.1570 O   0  0  0  0  0  0  0  0  0  0  0  0
    1.7260  -21.9550    7.6450 N   0  0  0  0  0  0  0  0  0  0  0  0
    4.1600  -26.2290    9.5970 C   0  0  0  0  0  0  0  0  0  0  0  0
    3.7070  -25.7500    8.2370 C   0  0  0  0  0  0  0  0  0  0  0  0
    2.8650  -24.6210    8.1060 C   0  0  0  0  0  0  0  0  0  0  0  0
    2.4580  -23.9680    9.2940 C   0  0  0  0  0  0  0  0  0  0  0  0
    2.8830  -24.4300   10.5510 C   0  0  0  0  0  0  0  0  0  0  0  0
    3.7230  -25.5330   10.7210 C   0  0  0  0  0  0  0  0  0  0  0  0
  1  2  1  0
  2  3  2  0
  2  4  1  0
  4  5  1  0
  6  7  2  0
  6  8  2  0
  6  9  1  0
  5 10  1  0
 10 11  2  0
 11 12  1  0
  6 13  1  0
 12 13  2  0
 13 14  1  0
 10 15  1  0
 14 15  2  0
M  END
