x0376-x1348
     RDKit          3D

 15 16  0  0  0  0  0  0  0  0999 V2000
    6.9920   -3.4420   21.1980 N   0  0  0  0  0  0  0  0  0  0  0  0
    7.7930   -5.3030   27.5370 C   0  0  0  0  0  0  0  0  0  0  0  0
    7.2740   -4.6680   26.6220 O   0  0  0  0  0  0  0  0  0  0  0  0
    5.2870   -4.1120   19.7560 O   0  0  0  0  0  0  0  0  0  0  0  0
    6.2040   -3.3540   20.0860 C   0  0  0  0  0  0  0  0  0  0  0  0
    6.5780   -2.1560   19.1850 C   0  0  0  0  0  0  0  0  0  0  0  0
    6.4170   -5.2400   25.9440 C   0  0  0  0  0  0  0  0  0  0  0  0
    6.2460   -4.9950   24.4750 C   0  0  0  0  0  0  0  0  0  0  0  0
    5.2110   -5.7240   23.8310 C   0  0  0  0  0  0  0  0  0  0  0  0
    4.3200   -6.6800   24.5960 C   0  0  0  0  0  0  0  0  0  0  0  0
    4.4510   -6.9150   25.9160 C   0  0  0  0  0  0  0  0  0  0  0  0
    5.5090   -6.2110   26.6980 C   0  0  0  0  0  0  0  0  0  0  0  0
    7.0650   -4.0730   23.7310 N   0  0  0  0  0  0  0  0  0  0  0  0
    6.5600   -4.1620   22.3720 C   0  0  0  0  0  0  0  0  0  0  0  0
    5.1860   -5.2920   22.1400 S   0  0  0  0  0  0  0  0  0  0  0  0
  2  3  1  0
  1  5  1  0
  4  5  2  0
  5  6  1  0
  3  7  1  0
  7  8  2  0
  8  9  1  0
  9 10  2  0
 10 11  1  0
  7 12  1  0
 11 12  2  0
  8 13  1  0
  1 14  1  0
 13 14  2  0
  9 15  1  0
 14 15  1  0
M  END
