
     RDKit          3D

 18 20  0  0  0  0  0  0  0  0999 V2000
    0.2030   29.5960   -9.4380 O   0  0  0  0  0  0  0  0  0  0  0  0
   -0.9600   29.7550   -9.2460 C   0  0  0  0  0  0  0  0  0  0  0  0
   -1.4180   30.8880   -8.4500 N   0  0  0  0  0  0  0  0  0  0  0  0
   -2.8460   31.0450   -8.2270 C   0  0  0  0  0  0  0  0  0  0  0  0
   -3.4250   32.3160   -8.8460 C   0  0  0  0  0  0  0  0  0  0  0  0
   -2.5530   33.5560   -8.6330 C   0  0  0  0  0  0  0  0  0  0  0  0
   -1.2840   33.5400   -9.4850 C   0  0  0  0  0  0  0  0  0  0  0  0
   -0.0560   33.0020   -8.7600 C   0  0  0  0  0  0  0  0  0  0  0  0
   -0.3800   31.7720   -7.9310 C   0  0  0  0  0  0  0  0  0  0  0  0
   -1.9320   28.7150   -9.7960 C   0  0  0  0  0  0  0  0  0  0  0  0
   -2.4180   28.7200  -11.0890 C   0  0  0  0  0  0  0  0  0  0  0  0
   -3.2980   27.7280  -11.5200 C   0  0  0  0  0  0  0  0  0  0  0  0
   -3.7010   26.6990  -10.6490 C   0  0  0  0  0  0  0  0  0  0  0  0
   -4.5650   25.6010  -10.8320 O   0  0  0  0  0  0  0  0  0  0  0  0
   -4.7200   25.0060   -9.5770 C   0  0  0  0  0  0  0  0  0  0  0  0
   -3.7820   25.5780   -8.7020 O   0  0  0  0  0  0  0  0  0  0  0  0
   -3.2260   26.6870   -9.3750 C   0  0  0  0  0  0  0  0  0  0  0  0
   -2.3310   27.7000   -8.9410 C   0  0  0  0  0  0  0  0  0  0  0  0
  1  2  2  0
  2  3  1  0
  2 10  1  0
  3  4  1  0
  3  9  1  0
  4  5  1  0
  5  6  1  0
  6  7  1  0
  7  8  1  0
  8  9  1  0
 10 11  2  0
 10 18  1  0
 11 12  1  0
 12 13  2  0
 13 14  1  0
 13 17  1  0
 14 15  1  0
 15 16  1  0
 16 17  1  0
 17 18  2  0
M  END
