x0376-x1493
     RDKit          3D

 12 12  0  0  0  0  0  0  0  0999 V2000
    4.5460   -6.5310   25.9250 C   0  0  0  0  0  0  0  0  0  0  0  0
    6.2060   -4.9490   26.7230 O   0  0  0  0  0  0  0  0  0  0  0  0
    5.6190   -5.5150   25.5480 C   0  0  0  0  0  0  0  0  0  0  0  0
    5.5770   -4.3670   19.7940 O   0  0  0  0  0  0  0  0  0  0  0  0
    6.4980   -4.1290   20.8590 C   0  0  0  0  0  0  0  0  0  0  0  0
    7.1500   -2.7550   21.0430 C   0  0  0  0  0  0  0  0  0  0  0  0
    5.9200   -5.2270   24.2210 N   0  0  0  0  0  0  0  0  0  0  0  0
    6.7290   -4.0880   23.7740 C   0  0  0  0  0  0  0  0  0  0  0  0
    7.6350   -4.5930   22.8270 C   0  0  0  0  0  0  0  0  0  0  0  0
    6.8780   -5.1750   21.8060 N   0  0  0  0  0  0  0  0  0  0  0  0
    6.0170   -6.1950   22.0900 C   0  0  0  0  0  0  0  0  0  0  0  0
    5.2130   -5.9870   23.1440 C   0  0  0  0  0  0  0  0  0  0  0  0
  1  3  1  0
  2  3  2  0
  4  5  2  0
  5  6  1  0
  3  7  1  0
  7  8  1  0
  8  9  1  0
  5 10  1  0
  9 10  1  0
 10 11  1  0
  7 12  1  0
 11 12  1  0
M  END
