x0390-x0978
     RDKit          3D

 14 13  0  0  0  0  0  0  0  0999 V2000
    2.0700   -8.3230   24.6850 C   0  0  0  0  0  0  0  0  0  0  0  0
    1.8330   -5.6800   23.3700 N   0  0  0  0  0  0  0  0  0  0  0  0
    4.3330   -7.7030   24.7140 O   0  0  0  0  0  0  0  0  0  0  0  0
    3.1810   -7.3120   24.5960 C   0  0  1  0  0  0  0  0  0  0  0  0
    5.3200   -6.2370   22.4020 N   0  0  0  0  0  0  0  0  0  0  0  0
    0.6810   -7.1010   21.9580 O   0  0  0  0  0  0  0  0  0  0  0  0
    3.0330   -6.5310   23.3340 C   0  0  2  0  0  0  0  0  0  0  0  0
    4.2200   -4.4130   23.4580 O   0  0  0  0  0  0  0  0  0  0  0  0
    0.7000   -6.0710   22.6540 C   0  0  0  0  0  0  0  0  0  0  0  0
   -0.5030   -5.3410   22.6640 C   0  0  0  0  0  0  0  0  0  0  0  0
    4.2360   -5.5950   23.0850 C   0  0  0  0  0  0  0  0  0  0  0  0
    6.5050   -5.6630   22.0150 C   0  0  0  0  0  0  0  0  0  0  0  0
    6.6850   -4.7930   21.2230 C   0  0  0  0  0  0  0  0  0  0  0  0
    5.7060   -4.1480   20.4760 C   0  0  0  0  0  0  0  0  0  0  0  0
  4  1  1  6
  3  4  1  0
  7  2  1  1
  4  7  1  0
  2  9  1  0
  6  9  2  0
  9 10  1  0
  5 11  1  0
  7 11  1  0
  8 11  2  0
  5 12  1  0
 12 13  2  3
 13 14  1  0
M  END
