x0390-x1386
     RDKit          3D

 18 20  0  0  0  0  0  0  0  0999 V2000
   22.5140   17.8950    2.7390 O   0  0  0  0  0  0  0  0  0  0  0  0
   23.1470   16.5150    5.1950 C   0  0  0  0  0  0  0  0  0  0  0  0
   22.6230   15.4150    4.3780 N   0  0  0  0  0  0  0  0  0  0  0  0
   22.0470   18.4200    3.7430 C   0  0  0  0  0  0  0  0  0  0  0  0
   22.3300   17.7670    5.0420 C   0  0  0  0  0  0  0  0  0  0  0  0
   21.7370   18.4320    6.2800 C   0  0  0  0  0  0  0  0  0  0  0  0
   20.9720   19.6060    6.1570 C   0  0  0  0  0  0  0  0  0  0  0  0
   20.7460   20.1800    4.8770 C   0  0  0  0  0  0  0  0  0  0  0  0
   21.2890   19.5770    3.6550 C   0  0  0  0  0  0  0  0  0  0  0  0
   24.7820   14.1750    4.9410 N   0  0  0  0  0  0  0  0  0  0  0  0
   23.5400   14.2880    4.1670 C   0  0  0  0  0  0  0  0  0  0  0  0
   23.3950   13.2740    3.3050 N   0  0  0  0  0  0  0  0  0  0  0  0
   24.4980   12.4390    3.4380 C   0  0  0  0  0  0  0  0  0  0  0  0
   25.3210   12.9640    4.4020 C   0  0  0  0  0  0  0  0  0  0  0  0
   26.5170   12.4040    4.8060 C   0  0  0  0  0  0  0  0  0  0  0  0
   26.8800   11.2300    4.1710 C   0  0  0  0  0  0  0  0  0  0  0  0
   26.1030   10.6290    3.1820 C   0  0  0  0  0  0  0  0  0  0  0  0
   24.8890   11.2400    2.8040 C   0  0  0  0  0  0  0  0  0  0  0  0
  2  3  1  0
  1  4  1  0
  2  5  1  0
  4  5  2  0
  5  6  1  0
  6  7  2  0
  7  8  1  0
  4  9  1  0
  8  9  2  0
  3 11  1  0
 10 11  1  0
 11 12  2  0
 12 13  1  0
 10 14  1  0
 13 14  2  0
 14 15  1  0
 15 16  2  0
 16 17  1  0
 13 18  1  0
 17 18  2  0
M  END
