x0390-x0395
     RDKit          3D

 18 20  0  0  0  0  0  0  0  0999 V2000
   22.4670   17.8620    2.7390 O   0  0  0  0  0  0  0  0  0  0  0  0
   23.1280   16.5230    5.1830 C   0  0  0  0  0  0  0  0  0  0  0  0
   22.6050   15.4060    4.3850 N   0  0  0  0  0  0  0  0  0  0  0  0
   21.9910   18.3970    3.7330 C   0  0  0  0  0  0  0  0  0  0  0  0
   22.2900   17.7630    5.0320 C   0  0  0  0  0  0  0  0  0  0  0  0
   21.6920   18.4300    6.2660 C   0  0  0  0  0  0  0  0  0  0  0  0
   20.9080   19.5920    6.1340 C   0  0  0  0  0  0  0  0  0  0  0  0
   20.6660   20.1490    4.8520 C   0  0  0  0  0  0  0  0  0  0  0  0
   21.2110   19.5420    3.6350 C   0  0  0  0  0  0  0  0  0  0  0  0
   24.7830   14.1950    4.9340 N   0  0  0  0  0  0  0  0  0  0  0  0
   23.5260   14.2820    4.1720 C   0  0  0  0  0  0  0  0  0  0  0  0
   23.3680   13.2590    3.3210 N   0  0  0  0  0  0  0  0  0  0  0  0
   24.4760   12.4340    3.4430 C   0  0  0  0  0  0  0  0  0  0  0  0
   25.3080   12.9770    4.3890 C   0  0  0  0  0  0  0  0  0  0  0  0
   26.5140   12.4260    4.7800 C   0  0  0  0  0  0  0  0  0  0  0  0
   26.8750   11.2470    4.1540 C   0  0  0  0  0  0  0  0  0  0  0  0
   26.0870   10.6290    3.1850 C   0  0  0  0  0  0  0  0  0  0  0  0
   24.8650   11.2290    2.8180 C   0  0  0  0  0  0  0  0  0  0  0  0
  2  3  1  0
  1  4  1  0
  2  5  1  0
  4  5  2  0
  5  6  1  0
  6  7  2  0
  7  8  1  0
  4  9  1  0
  8  9  2  0
  3 11  1  0
 10 11  2  0
 11 12  1  0
 12 13  1  0
 10 14  1  0
 13 14  2  0
 14 15  1  0
 15 16  2  0
 16 17  1  0
 13 18  1  0
 17 18  2  0
M  END
