x0390-x0708
     RDKit          3D

 16 17  0  0  0  0  0  0  0  0999 V2000
    6.7270   -4.5050   21.2860 N   0  0  0  0  0  0  0  0  0  0  0  0
    7.2100   -2.3960   20.1800 C   0  0  0  0  0  0  0  0  0  0  0  0
    5.3760   -3.8430   19.5600 O   0  0  0  0  0  0  0  0  0  0  0  0
    6.3350   -3.6240   20.3050 C   0  0  0  0  0  0  0  0  0  0  0  0
    7.8170   -4.1380   22.1050 N   0  0  0  0  0  0  0  0  0  0  0  0
    6.5840   -2.7640   23.1910 O   0  0  0  0  0  0  0  0  0  0  0  0
    7.6770   -3.0810   22.7380 C   0  0  0  0  0  0  0  0  0  0  0  0
    8.8920   -2.1730   22.9210 C   0  0  0  0  0  0  0  0  0  0  0  0
   10.1380   -2.3220   22.3060 C   0  0  0  0  0  0  0  0  0  0  0  0
   11.0600   -1.3430   22.6260 C   0  0  0  0  0  0  0  0  0  0  0  0
   10.4810   -0.3780   23.5480 C   0  0  0  0  0  0  0  0  0  0  0  0
    8.8590   -0.7950   23.9380 S   0  0  0  0  0  0  0  0  0  0  0  0
   12.4460   -1.1690   22.1760 C   0  0  0  0  0  0  0  0  0  0  0  0
   13.1120   -0.0520   22.6660 C   0  0  0  0  0  0  0  0  0  0  0  0
   12.4970    0.8420   23.5380 C   0  0  0  0  0  0  0  0  0  0  0  0
   11.2060    0.7160   24.0030 C   0  0  0  0  0  0  0  0  0  0  0  0
  1  4  1  0
  2  4  1  0
  3  4  2  0
  1  5  1  0
  5  7  1  0
  6  7  2  0
  7  8  1  0
  8  9  2  0
  9 10  1  0
 10 11  2  0
  8 12  1  0
 11 12  1  0
 10 13  1  0
 13 14  2  0
 14 15  1  0
 11 16  1  0
 15 16  2  0
M  END
