x0390-x0774
     RDKit          3D

 20 21  0  0  0  0  0  0  0  0999 V2000
    6.2370   -2.2210   18.9940 C   0  0  0  0  0  0  0  0  0  0  0  0
    5.3200   -4.3230   19.6970 O   0  0  0  0  0  0  0  0  0  0  0  0
    5.9880   -3.3310   19.9860 C   0  0  0  0  0  0  0  0  0  0  0  0
    8.1720   -0.8420   25.2810 O   0  0  0  0  0  0  0  0  0  0  0  0
   10.7640   -2.4070   23.7890 N   0  0  0  0  0  0  0  0  0  0  0  0
    5.8660   -1.7110   25.7700 O   0  0  0  0  0  0  0  0  0  0  0  0
    9.9110   -3.0500   24.7910 C   0  0  0  0  0  0  0  0  0  0  0  0
    7.2300   -1.9390   25.3390 S   0  0  0  0  0  0  0  0  0  0  0  0
    6.5840   -3.2310   21.2240 N   0  0  0  0  0  0  0  0  0  0  0  0
    6.1500   -4.0810   22.3270 C   0  0  0  0  0  0  0  0  0  0  0  0
    5.9490   -3.3370   23.4990 C   0  0  0  0  0  0  0  0  0  0  0  0
    7.1410   -2.5280   23.7710 N   0  0  0  0  0  0  0  0  0  0  0  0
    7.5300   -1.6990   22.7430 C   0  0  0  0  0  0  0  0  0  0  0  0
    7.6820   -2.4350   21.4920 C   0  0  0  0  0  0  0  0  0  0  0  0
    6.9750   -3.7590   27.1740 C   0  0  0  0  0  0  0  0  0  0  0  0
    7.4960   -4.8350   27.8760 C   0  0  0  0  0  0  0  0  0  0  0  0
    8.8100   -5.3510   27.5830 C   0  0  0  0  0  0  0  0  0  0  0  0
    9.6500   -4.7820   26.5520 C   0  0  0  0  0  0  0  0  0  0  0  0
    9.1560   -3.6880   25.8220 C   0  0  0  0  0  0  0  0  0  0  0  0
    7.9250   -3.3980   26.2760 C   0  0  0  0  0  0  0  0  0  0  0  0
  1  3  1  0
  2  3  2  0
  5  7  3  0
  4  8  2  0
  6  8  2  0
  3  9  1  0
  9 10  1  0
 10 11  1  0
  8 12  1  0
 11 12  1  0
 12 13  1  0
  9 14  1  0
 13 14  1  0
 15 16  2  0
 16 17  1  0
 17 18  2  0
  7 19  1  0
 18 19  1  0
  8 20  1  0
 15 20  1  0
 19 20  2  0
M  END
