x0390-x0887
     RDKit          3D

 18 20  0  0  0  0  0  0  0  0999 V2000
   22.5210   17.8140    2.8260 O   0  0  0  0  0  0  0  0  0  0  0  0
   23.1190   16.4930    5.2720 C   0  0  0  0  0  0  0  0  0  0  0  0
   22.6470   15.4240    4.3800 N   0  0  0  0  0  0  0  0  0  0  0  0
   22.0310   18.3690    3.8010 C   0  0  0  0  0  0  0  0  0  0  0  0
   22.3000   17.7410    5.1050 C   0  0  0  0  0  0  0  0  0  0  0  0
   21.6980   18.4230    6.3270 C   0  0  0  0  0  0  0  0  0  0  0  0
   20.9330   19.5950    6.1800 C   0  0  0  0  0  0  0  0  0  0  0  0
   20.7180   20.1480    4.8910 C   0  0  0  0  0  0  0  0  0  0  0  0
   21.2710   19.5230    3.6830 C   0  0  0  0  0  0  0  0  0  0  0  0
   24.8140   14.1970    4.9370 N   0  0  0  0  0  0  0  0  0  0  0  0
   23.5600   14.2930    4.1730 C   0  0  0  0  0  0  0  0  0  0  0  0
   23.3940   13.2720    3.3220 N   0  0  0  0  0  0  0  0  0  0  0  0
   24.4930   12.4350    3.4470 C   0  0  0  0  0  0  0  0  0  0  0  0
   25.3290   12.9730    4.3930 C   0  0  0  0  0  0  0  0  0  0  0  0
   26.5300   12.4120    4.7880 C   0  0  0  0  0  0  0  0  0  0  0  0
   26.8800   11.2280    4.1640 C   0  0  0  0  0  0  0  0  0  0  0  0
   26.0890   10.6160    3.1930 C   0  0  0  0  0  0  0  0  0  0  0  0
   24.8720   11.2270    2.8240 C   0  0  0  0  0  0  0  0  0  0  0  0
  2  3  1  0
  1  4  1  0
  2  5  1  0
  4  5  2  0
  5  6  1  0
  6  7  2  0
  7  8  1  0
  4  9  1  0
  8  9  2  0
  3 11  1  0
 10 11  2  0
 11 12  1  0
 12 13  1  0
 10 14  1  0
 13 14  2  0
 14 15  1  0
 15 16  2  0
 16 17  1  0
 13 18  1  0
 17 18  2  0
M  END
