x0398-x1358
     RDKit          3D

 19 20  0  0  0  0  0  0  0  0999 V2000
    6.8580   -2.2510   25.8070 N   0  0  0  0  0  0  0  0  0  0  0  0
    5.5890    0.0410   25.2070 O   0  0  0  0  0  0  0  0  0  0  0  0
    4.8340   -3.3900   25.6080 O   0  0  0  0  0  0  0  0  0  0  0  0
    5.2010   -4.3420   19.5490 O   0  0  0  0  0  0  0  0  0  0  0  0
    5.9670   -3.1270   25.2220 C   0  0  0  0  0  0  0  0  0  0  0  0
    6.0400   -3.6120   20.0610 C   0  0  0  0  0  0  0  0  0  0  0  0
    6.3550   -2.2680   19.4460 C   0  0  0  0  0  0  0  0  0  0  0  0
    6.0150   -0.1180   26.5030 C   0  0  0  0  0  0  0  0  0  0  0  0
    6.6700   -1.3050   26.8410 C   0  0  0  0  0  0  0  0  0  0  0  0
    7.1260   -1.4590   28.2970 C   0  0  0  0  0  0  0  0  0  0  0  0
    6.8830   -0.4280   29.1930 C   0  0  0  0  0  0  0  0  0  0  0  0
    6.2240    0.7310   28.7730 C   0  0  0  0  0  0  0  0  0  0  0  0
    5.7930    0.8870   27.4470 C   0  0  0  0  0  0  0  0  0  0  0  0
    6.7430   -4.0110   21.1770 N   0  0  0  0  0  0  0  0  0  0  0  0
    7.6610   -3.1420   21.9100 C   0  0  0  0  0  0  0  0  0  0  0  0
    7.1270   -2.7740   23.1460 C   0  0  0  0  0  0  0  0  0  0  0  0
    6.5910   -3.7690   23.9740 C   0  0  0  0  0  0  0  0  0  0  0  0
    5.6160   -4.7080   23.2360 C   0  0  0  0  0  0  0  0  0  0  0  0
    6.2070   -5.1570   21.9090 C   0  0  0  0  0  0  0  0  0  0  0  0
  1  5  1  0
  3  5  2  0
  4  6  2  0
  6  7  1  0
  2  8  1  0
  1  9  1  0
  8  9  2  0
  9 10  1  0
 10 11  2  0
 11 12  1  0
  8 13  1  0
 12 13  2  0
  6 14  1  0
 14 15  1  0
 15 16  1  0
  5 17  1  0
 16 17  1  0
 17 18  1  0
 14 19  1  0
 18 19  1  0
M  END
