x0390-x1249
     RDKit          3D

 18 19  0  0  0  0  0  0  0  0999 V2000
    8.3170    0.5310   24.7200 N   0  0  0  0  0  0  0  0  0  0  0  0
    7.5500    1.4480   24.0030 C   0  0  0  0  0  0  0  0  0  0  0  0
    8.1360    2.6470   23.4970 O   0  0  0  0  0  0  0  0  0  0  0  0
    9.6080    0.8170   25.0810 C   0  0  0  0  0  0  0  0  0  0  0  0
   13.5530   -1.0230   21.4610 N   0  0  0  0  0  0  0  0  0  0  0  0
   13.0220   -2.1150   21.4860 C   0  0  0  0  0  0  0  0  0  0  0  0
    3.5100    0.9020   23.6020 O   0  0  0  0  0  0  0  0  0  0  0  0
    4.1960    0.9010   22.5650 C   0  0  0  0  0  0  0  0  0  0  0  0
    5.4320    1.5800   22.6520 C   0  0  0  0  0  0  0  0  0  0  0  0
    6.2170    1.1240   23.8160 N   0  0  0  0  0  0  0  0  0  0  0  0
    5.4650    0.8650   24.9450 C   0  0  0  0  0  0  0  0  0  0  0  0
    4.1400    0.3160   24.6490 C   0  0  0  0  0  0  0  0  0  0  0  0
   11.8440    0.7240   23.7120 C   0  0  0  0  0  0  0  0  0  0  0  0
   12.6310   -0.0350   22.8400 C   0  0  0  0  0  0  0  0  0  0  0  0
   12.2440   -1.3290   22.3710 C   0  0  0  0  0  0  0  0  0  0  0  0
   11.0240   -1.8210   22.8270 C   0  0  0  0  0  0  0  0  0  0  0  0
   10.2550   -1.0670   23.6900 C   0  0  0  0  0  0  0  0  0  0  0  0
   10.6140    0.1810   24.1480 C   0  0  0  0  0  0  0  0  0  0  0  0
  1  2  1  0
  2  3  2  0
  1  4  1  0
  5  6  3  0
  7  8  1  0
  8  9  1  0
  2 10  1  0
  9 10  1  0
 10 11  1  0
  7 12  1  0
 11 12  1  0
 13 14  2  0
  6 15  1  0
 14 15  1  0
 15 16  2  0
 16 17  1  0
  4 18  1  0
 13 18  1  0
 17 18  2  0
M  END
