x0390-x0305
     RDKit          3D

 18 20  0  0  0  0  0  0  0  0999 V2000
   22.5170   17.7900    2.8090 O   0  0  0  0  0  0  0  0  0  0  0  0
   23.1300   16.4940    5.2530 C   0  0  0  0  0  0  0  0  0  0  0  0
   22.6250   15.4030    4.4100 N   0  0  0  0  0  0  0  0  0  0  0  0
   22.0290   18.3550    3.7790 C   0  0  0  0  0  0  0  0  0  0  0  0
   22.3090   17.7420    5.0870 C   0  0  0  0  0  0  0  0  0  0  0  0
   21.7140   18.4330    6.3070 C   0  0  0  0  0  0  0  0  0  0  0  0
   20.9450   19.6000    6.1500 C   0  0  0  0  0  0  0  0  0  0  0  0
   20.7150   20.1410    4.8590 C   0  0  0  0  0  0  0  0  0  0  0  0
   21.2610   19.5080    3.6540 C   0  0  0  0  0  0  0  0  0  0  0  0
   24.7970   14.1860    4.9450 N   0  0  0  0  0  0  0  0  0  0  0  0
   23.5380   14.2800    4.1860 C   0  0  0  0  0  0  0  0  0  0  0  0
   23.3760   13.2580    3.3320 N   0  0  0  0  0  0  0  0  0  0  0  0
   24.4790   12.4310    3.4490 C   0  0  0  0  0  0  0  0  0  0  0  0
   25.3160   12.9690    4.3930 C   0  0  0  0  0  0  0  0  0  0  0  0
   26.5230   12.4160    4.7800 C   0  0  0  0  0  0  0  0  0  0  0  0
   26.8790   11.2370    4.1490 C   0  0  0  0  0  0  0  0  0  0  0  0
   26.0870   10.6250    3.1810 C   0  0  0  0  0  0  0  0  0  0  0  0
   24.8640   11.2260    2.8190 C   0  0  0  0  0  0  0  0  0  0  0  0
  2  3  1  0
  1  4  1  0
  2  5  1  0
  4  5  2  0
  5  6  1  0
  6  7  2  0
  7  8  1  0
  4  9  1  0
  8  9  2  0
  3 11  1  0
 10 11  2  0
 11 12  1  0
 12 13  1  0
 10 14  1  0
 13 14  2  0
 14 15  1  0
 15 16  2  0
 16 17  1  0
 13 18  1  0
 17 18  2  0
M  END
