x0390-x1478
     RDKit          3D

 18 20  0  0  0  0  0  0  0  0999 V2000
   22.4720   17.8690    2.7350 O   0  0  0  0  0  0  0  0  0  0  0  0
   23.1210   16.5230    5.1960 C   0  0  0  0  0  0  0  0  0  0  0  0
   22.6160   15.4160    4.3810 N   0  0  0  0  0  0  0  0  0  0  0  0
   21.9870   18.3940    3.7320 C   0  0  0  0  0  0  0  0  0  0  0  0
   22.2760   17.7570    5.0330 C   0  0  0  0  0  0  0  0  0  0  0  0
   21.6630   18.4140    6.2650 C   0  0  0  0  0  0  0  0  0  0  0  0
   20.8760   19.5700    6.1320 C   0  0  0  0  0  0  0  0  0  0  0  0
   20.6450   20.1310    4.8500 C   0  0  0  0  0  0  0  0  0  0  0  0
   21.2020   19.5330    3.6340 C   0  0  0  0  0  0  0  0  0  0  0  0
   24.7800   14.1810    4.9520 N   0  0  0  0  0  0  0  0  0  0  0  0
   23.5390   14.2970    4.1750 C   0  0  0  0  0  0  0  0  0  0  0  0
   23.3960   13.2860    3.3080 N   0  0  0  0  0  0  0  0  0  0  0  0
   24.4990   12.4510    3.4410 C   0  0  0  0  0  0  0  0  0  0  0  0
   25.3190   12.9740    4.4090 C   0  0  0  0  0  0  0  0  0  0  0  0
   26.5130   12.4150    4.8160 C   0  0  0  0  0  0  0  0  0  0  0  0
   26.8760   11.2430    4.1780 C   0  0  0  0  0  0  0  0  0  0  0  0
   26.1040   10.6450    3.1830 C   0  0  0  0  0  0  0  0  0  0  0  0
   24.8910   11.2570    2.8030 C   0  0  0  0  0  0  0  0  0  0  0  0
  2  3  1  0
  1  4  1  0
  2  5  1  0
  4  5  2  0
  5  6  1  0
  6  7  2  0
  7  8  1  0
  4  9  1  0
  8  9  2  0
  3 11  1  0
 10 11  1  0
 11 12  2  0
 12 13  1  0
 10 14  1  0
 13 14  2  0
 14 15  1  0
 15 16  2  0
 16 17  1  0
 13 18  1  0
 17 18  2  0
M  END
