x0390-x0165
     RDKit          3D

 18 20  0  0  0  0  0  0  0  0999 V2000
   22.5210   17.8260    2.8000 O   0  0  0  0  0  0  0  0  0  0  0  0
   23.1450   16.5080    5.2440 C   0  0  0  0  0  0  0  0  0  0  0  0
   22.6380   15.4160    4.4050 N   0  0  0  0  0  0  0  0  0  0  0  0
   22.0340   18.3750    3.7830 C   0  0  0  0  0  0  0  0  0  0  0  0
   22.3170   17.7520    5.0860 C   0  0  0  0  0  0  0  0  0  0  0  0
   21.7180   18.4330    6.3090 C   0  0  0  0  0  0  0  0  0  0  0  0
   20.9450   19.5980    6.1640 C   0  0  0  0  0  0  0  0  0  0  0  0
   20.7160   20.1460    4.8770 C   0  0  0  0  0  0  0  0  0  0  0  0
   21.2640   19.5240    3.6680 C   0  0  0  0  0  0  0  0  0  0  0  0
   24.7940   14.1680    4.9550 N   0  0  0  0  0  0  0  0  0  0  0  0
   23.5510   14.2920    4.1840 C   0  0  0  0  0  0  0  0  0  0  0  0
   23.4060   13.2820    3.3140 N   0  0  0  0  0  0  0  0  0  0  0  0
   24.5060   12.4450    3.4400 C   0  0  0  0  0  0  0  0  0  0  0  0
   25.3290   12.9630    4.4090 C   0  0  0  0  0  0  0  0  0  0  0  0
   26.5250   12.4000    4.8130 C   0  0  0  0  0  0  0  0  0  0  0  0
   26.8860   11.2290    4.1720 C   0  0  0  0  0  0  0  0  0  0  0  0
   26.1110   10.6340    3.1780 C   0  0  0  0  0  0  0  0  0  0  0  0
   24.8980   11.2480    2.8010 C   0  0  0  0  0  0  0  0  0  0  0  0
  2  3  1  0
  1  4  1  0
  2  5  1  0
  4  5  2  0
  5  6  1  0
  6  7  2  0
  7  8  1  0
  4  9  1  0
  8  9  2  0
  3 11  1  0
 10 11  1  0
 11 12  2  0
 12 13  1  0
 10 14  1  0
 13 14  2  0
 14 15  1  0
 15 16  2  0
 16 17  1  0
 13 18  1  0
 17 18  2  0
M  END
