x0390-x0194
     RDKit          3D

 17 18  0  0  0  0  0  0  0  0999 V2000
   24.3380  -14.2230   24.7170 C   0  0  0  0  0  0  0  0  0  0  0  0
   24.0890  -14.8300   26.0700 C   0  0  0  0  0  0  0  0  0  0  0  0
   24.4570  -14.2880   27.0910 O   0  0  0  0  0  0  0  0  0  0  0  0
   23.3850  -16.1010   26.0670 N   0  0  0  0  0  0  0  0  0  0  0  0
   24.7530  -20.5240   22.9490 O   0  0  0  0  0  0  0  0  0  0  0  0
   23.7440  -17.2550   25.2450 C   0  0  0  0  0  0  0  0  0  0  0  0
   22.6430  -18.0010   24.4580 C   0  0  0  0  0  0  0  0  0  0  0  0
   22.9200  -19.1450   23.6380 C   0  0  0  0  0  0  0  0  0  0  0  0
   24.2620  -19.5620   23.5750 C   0  0  0  0  0  0  0  0  0  0  0  0
   25.0330  -18.6780   24.4020 C   0  0  0  0  0  0  0  0  0  0  0  0
   25.0440  -17.7440   25.1190 C   0  0  0  0  0  0  0  0  0  0  0  0
   25.3830  -20.0290   20.6870 N   0  0  0  0  0  0  0  0  0  0  0  0
   25.2010  -20.3280   19.2910 C   0  0  0  0  0  0  0  0  0  0  0  0
   24.2750  -21.2900   18.8500 C   0  0  0  0  0  0  0  0  0  0  0  0
   23.4660  -22.0280   19.7100 C   0  0  0  0  0  0  0  0  0  0  0  0
   23.5700  -21.8130   21.1840 N   0  0  0  0  0  0  0  0  0  0  0  0
   24.5610  -20.7850   21.6090 C   0  0  0  0  0  0  0  0  0  0  0  0
  1  2  1  0
  2  3  2  0
  2  4  1  0
  4  6  1  0
  6  7  2  0
  7  8  1  0
  5  9  1  0
  8  9  2  0
  9 10  1  0
  6 11  1  0
 10 11  2  0
 12 13  2  0
 13 14  1  0
 14 15  2  0
 15 16  1  0
  5 17  1  0
 12 17  1  0
 16 17  2  0
M  END
