x0390-x0830
     RDKit          3D

 20 22  0  0  0  0  0  0  0  0999 V2000
    7.1470   -2.0620   18.5810 C   0  0  0  0  0  0  0  0  0  0  0  0
    5.5290   -3.5690   19.5420 O   0  0  0  0  0  0  0  0  0  0  0  0
    6.3890   -2.6860   19.7090 C   0  0  0  0  0  0  0  0  0  0  0  0
    9.8810   -2.3570   23.8480 C   0  0  0  0  0  0  0  0  0  0  0  0
    6.7780   -2.1800   21.0070 N   0  0  0  0  0  0  0  0  0  0  0  0
    6.7790   -3.1540   22.0150 C   0  0  0  0  0  0  0  0  0  0  0  0
    7.5490   -2.9840   23.1910 C   0  0  0  0  0  0  0  0  0  0  0  0
    8.7140   -2.1110   22.9970 N   0  0  0  0  0  0  0  0  0  0  0  0
    9.0400   -1.6660   21.6800 C   0  0  0  0  0  0  0  0  0  0  0  0
    7.8180   -1.1450   21.0950 C   0  0  0  0  0  0  0  0  0  0  0  0
   12.1770   -1.8880   22.8630 C   0  0  0  0  0  0  0  0  0  0  0  0
   13.1330   -0.9580   22.5510 C   0  0  0  0  0  0  0  0  0  0  0  0
   12.9770    0.3870   22.8190 C   0  0  0  0  0  0  0  0  0  0  0  0
   11.8120    0.8280   23.4210 C   0  0  0  0  0  0  0  0  0  0  0  0
   10.8270   -0.1030   23.7630 C   0  0  0  0  0  0  0  0  0  0  0  0
   11.0030   -1.4410   23.4800 C   0  0  0  0  0  0  0  0  0  0  0  0
   11.6210    2.1710   23.6750 C   0  0  0  0  0  0  0  0  0  0  0  0
   10.3420    2.6190   24.3360 C   0  0  0  0  0  0  0  0  0  0  0  0
    9.3900    1.6680   24.6850 C   0  0  0  0  0  0  0  0  0  0  0  0
    9.6360    0.3350   24.3980 C   0  0  0  0  0  0  0  0  0  0  0  0
  1  3  1  0
  2  3  2  0
  3  5  1  0
  5  6  1  0
  6  7  1  0
  4  8  1  0
  7  8  1  0
  8  9  1  0
  5 10  1  0
  9 10  1  0
 11 12  2  0
 12 13  1  0
 13 14  2  0
 14 15  1  0
  4 16  1  0
 11 16  1  0
 15 16  2  0
 14 17  1  0
 17 18  2  0
 18 19  1  0
 15 20  1  0
 19 20  2  0
M  END
