x0390-x0669
     RDKit          3D

 18 20  0  0  0  0  0  0  0  0999 V2000
   22.4540   17.8330    2.7510 O   0  0  0  0  0  0  0  0  0  0  0  0
   23.1230   16.5050    5.2050 C   0  0  0  0  0  0  0  0  0  0  0  0
   22.6240   15.4190    4.3510 N   0  0  0  0  0  0  0  0  0  0  0  0
   22.0000   18.3820    3.7510 C   0  0  0  0  0  0  0  0  0  0  0  0
   22.3040   17.7560    5.0500 C   0  0  0  0  0  0  0  0  0  0  0  0
   21.7360   18.4400    6.2890 C   0  0  0  0  0  0  0  0  0  0  0  0
   20.9680   19.6130    6.1640 C   0  0  0  0  0  0  0  0  0  0  0  0
   20.7190   20.1630    4.8780 C   0  0  0  0  0  0  0  0  0  0  0  0
   21.2370   19.5380    3.6560 C   0  0  0  0  0  0  0  0  0  0  0  0
   24.7930   14.2000    4.9170 N   0  0  0  0  0  0  0  0  0  0  0  0
   23.5400   14.2880    4.1480 C   0  0  0  0  0  0  0  0  0  0  0  0
   23.3800   13.2630    3.3040 N   0  0  0  0  0  0  0  0  0  0  0  0
   24.4840   12.4300    3.4370 C   0  0  0  0  0  0  0  0  0  0  0  0
   25.3140   12.9770    4.3820 C   0  0  0  0  0  0  0  0  0  0  0  0
   26.5180   12.4220    4.7810 C   0  0  0  0  0  0  0  0  0  0  0  0
   26.8740   11.2370    4.1660 C   0  0  0  0  0  0  0  0  0  0  0  0
   26.0880   10.6150    3.1980 C   0  0  0  0  0  0  0  0  0  0  0  0
   24.8690   11.2180    2.8210 C   0  0  0  0  0  0  0  0  0  0  0  0
  2  3  1  0
  1  4  1  0
  2  5  1  0
  4  5  2  0
  5  6  1  0
  6  7  2  0
  7  8  1  0
  4  9  1  0
  8  9  2  0
  3 11  1  0
 10 11  2  0
 11 12  1  0
 12 13  1  0
 10 14  1  0
 13 14  2  0
 14 15  1  0
 15 16  2  0
 16 17  1  0
 13 18  1  0
 17 18  2  0
M  END
