x0390-x0398
     RDKit          3D

 18 20  0  0  0  0  0  0  0  0999 V2000
   22.5130   17.8080    2.8210 O   0  0  0  0  0  0  0  0  0  0  0  0
   23.1540   16.5150    5.2630 C   0  0  0  0  0  0  0  0  0  0  0  0
   22.6460   15.4250    4.4200 N   0  0  0  0  0  0  0  0  0  0  0  0
   22.0340   18.3700    3.7960 C   0  0  0  0  0  0  0  0  0  0  0  0
   22.3230   17.7600    5.1030 C   0  0  0  0  0  0  0  0  0  0  0  0
   21.7310   18.4510    6.3260 C   0  0  0  0  0  0  0  0  0  0  0  0
   20.9570   19.6170    6.1730 C   0  0  0  0  0  0  0  0  0  0  0  0
   20.7210   20.1540    4.8820 C   0  0  0  0  0  0  0  0  0  0  0  0
   21.2640   19.5190    3.6750 C   0  0  0  0  0  0  0  0  0  0  0  0
   24.8000   14.1740    4.9680 N   0  0  0  0  0  0  0  0  0  0  0  0
   23.5580   14.2990    4.1970 C   0  0  0  0  0  0  0  0  0  0  0  0
   23.4100   13.2950    3.3240 N   0  0  0  0  0  0  0  0  0  0  0  0
   24.5110   12.4540    3.4470 C   0  0  0  0  0  0  0  0  0  0  0  0
   25.3360   12.9680    4.4160 C   0  0  0  0  0  0  0  0  0  0  0  0
   26.5300   12.4000    4.8160 C   0  0  0  0  0  0  0  0  0  0  0  0
   26.8860   11.2310    4.1700 C   0  0  0  0  0  0  0  0  0  0  0  0
   26.1090   10.6410    3.1740 C   0  0  0  0  0  0  0  0  0  0  0  0
   24.8980   11.2600    2.8030 C   0  0  0  0  0  0  0  0  0  0  0  0
  2  3  1  0
  1  4  1  0
  2  5  1  0
  4  5  2  0
  5  6  1  0
  6  7  2  0
  7  8  1  0
  4  9  1  0
  8  9  2  0
  3 11  1  0
 10 11  1  0
 11 12  2  0
 12 13  1  0
 10 14  1  0
 13 14  2  0
 14 15  1  0
 15 16  2  0
 16 17  1  0
 13 18  1  0
 17 18  2  0
M  END
