x0398-x1308
     RDKit          3D

 19 20  0  0  0  0  0  0  0  0999 V2000
    6.8470   -2.8800   21.1940 C   0  0  0  0  0  0  0  0  0  0  0  0
    5.4340   -4.5150   19.8800 O   0  0  0  0  0  0  0  0  0  0  0  0
    0.7010   -1.1880   26.3160 Cl  0  0  0  0  0  0  0  0  0  0  0  0
    6.3200   -4.3000   20.9050 C   0  0  0  0  0  0  0  0  0  0  0  0
    6.3640   -4.9710   26.9380 O   0  0  0  0  0  0  0  0  0  0  0  0
    4.7230   -6.7560   26.2710 O   0  0  0  0  0  0  0  0  0  0  0  0
    5.3080   -5.4490   26.0730 S   0  0  0  0  0  0  0  0  0  0  0  0
    6.8460   -5.3680   21.7550 N   0  0  0  0  0  0  0  0  0  0  0  0
    7.6170   -4.8390   22.8900 C   0  0  0  0  0  0  0  0  0  0  0  0
    6.7620   -4.2910   24.0280 C   0  0  0  0  0  0  0  0  0  0  0  0
    5.8520   -5.3700   24.4730 N   0  0  0  0  0  0  0  0  0  0  0  0
    4.9790   -5.8410   23.3640 C   0  0  0  0  0  0  0  0  0  0  0  0
    5.8260   -6.3460   22.1780 C   0  0  0  0  0  0  0  0  0  0  0  0
    4.2920   -2.9240   26.4700 C   0  0  0  0  0  0  0  0  0  0  0  0
    3.2690   -1.9800   26.5240 C   0  0  0  0  0  0  0  0  0  0  0  0
    1.9570   -2.3560   26.2340 C   0  0  0  0  0  0  0  0  0  0  0  0
    1.6640   -3.6700   25.8830 C   0  0  0  0  0  0  0  0  0  0  0  0
    2.6870   -4.6180   25.8280 C   0  0  0  0  0  0  0  0  0  0  0  0
    4.0010   -4.2470   26.1250 C   0  0  0  0  0  0  0  0  0  0  0  0
  1  4  1  0
  2  4  2  0
  5  7  2  0
  6  7  2  0
  4  8  1  0
  8  9  1  0
  9 10  1  0
  7 11  1  0
 10 11  1  0
 11 12  1  0
  8 13  1  0
 12 13  1  0
 14 15  2  0
  3 16  1  0
 15 16  1  0
 16 17  2  0
 17 18  1  0
  7 19  1  0
 14 19  1  0
 18 19  2  0
M  END
