x0390-x1334
     RDKit          3D

 16 17  0  0  0  0  0  0  0  0999 V2000
    6.3400   -1.9970   18.7350 C   0  0  0  0  0  0  0  0  0  0  0  0
    5.4340   -4.0210   19.6840 O   0  0  0  0  0  0  0  0  0  0  0  0
    7.3440   -5.7670   28.3720 Cl  0  0  0  0  0  0  0  0  0  0  0  0
    6.0690   -2.9690   19.8510 C   0  0  0  0  0  0  0  0  0  0  0  0
    9.5890   -2.9960   24.1100 C   0  0  0  0  0  0  0  0  0  0  0  0
    6.6400   -2.5970   21.1320 N   0  0  0  0  0  0  0  0  0  0  0  0
    7.8430   -1.8790   21.0290 C   0  0  0  0  0  0  0  0  0  0  0  0
    8.8100   -1.8640   22.0620 C   0  0  0  0  0  0  0  0  0  0  0  0
    8.4440   -2.6810   23.2340 N   0  0  0  0  0  0  0  0  0  0  0  0
    7.6190   -3.8280   22.9980 C   0  0  0  0  0  0  0  0  0  0  0  0
    6.3890   -3.3880   22.3500 C   0  0  0  0  0  0  0  0  0  0  0  0
    9.8890   -5.1640   25.4070 C   0  0  0  0  0  0  0  0  0  0  0  0
    9.2340   -3.9730   25.1810 C   0  0  0  0  0  0  0  0  0  0  0  0
    7.9510   -3.7670   26.3000 S   0  0  0  0  0  0  0  0  0  0  0  0
    8.2990   -5.2530   27.0490 C   0  0  0  0  0  0  0  0  0  0  0  0
    9.3750   -5.9260   26.4730 C   0  0  0  0  0  0  0  0  0  0  0  0
  1  4  1  0
  2  4  2  0
  4  6  1  0
  6  7  1  0
  7  8  1  0
  5  9  1  0
  8  9  1  0
  9 10  1  0
  6 11  1  0
 10 11  1  0
  5 13  1  0
 12 13  2  0
 13 14  1  0
  3 15  1  0
 14 15  1  0
 12 16  1  0
 15 16  2  0
M  END
