x0390-x0770
     RDKit          3D

 17 18  0  0  0  0  0  0  0  0999 V2000
    6.2670   -2.1050   18.6800 C   0  0  0  0  0  0  0  0  0  0  0  0
    5.4110   -4.0890   19.7420 O   0  0  0  0  0  0  0  0  0  0  0  0
   13.3480   -1.7500   21.2300 Cl  0  0  0  0  0  0  0  0  0  0  0  0
    5.9750   -2.9950   19.8610 C   0  0  0  0  0  0  0  0  0  0  0  0
    9.2390   -2.2350   24.2260 C   0  0  0  0  0  0  0  0  0  0  0  0
    6.4560   -2.4670   21.1210 N   0  0  0  0  0  0  0  0  0  0  0  0
    7.5660   -1.6260   21.0040 C   0  0  0  0  0  0  0  0  0  0  0  0
    8.6240   -1.7370   21.9110 C   0  0  0  0  0  0  0  0  0  0  0  0
    8.1590   -2.1240   23.2460 N   0  0  0  0  0  0  0  0  0  0  0  0
    7.1880   -3.1710   23.3820 C   0  0  0  0  0  0  0  0  0  0  0  0
    6.0730   -2.9900   22.4470 C   0  0  0  0  0  0  0  0  0  0  0  0
   10.6920   -0.1600   24.4840 C   0  0  0  0  0  0  0  0  0  0  0  0
   11.8030    0.5600   24.0700 C   0  0  0  0  0  0  0  0  0  0  0  0
   12.6610    0.1170   23.0750 C   0  0  0  0  0  0  0  0  0  0  0  0
   12.3910   -1.1030   22.4640 C   0  0  0  0  0  0  0  0  0  0  0  0
   11.2870   -1.8170   22.8720 C   0  0  0  0  0  0  0  0  0  0  0  0
   10.4260   -1.3910   23.8580 C   0  0  0  0  0  0  0  0  0  0  0  0
  1  4  1  0
  2  4  2  0
  4  6  1  0
  6  7  1  0
  7  8  1  0
  5  9  1  0
  8  9  1  0
  9 10  1  0
  6 11  1  0
 10 11  1  0
 12 13  2  0
 13 14  1  0
  3 15  1  0
 14 15  2  0
 15 16  1  0
  5 17  1  0
 12 17  1  0
 16 17  2  0
M  END
