x0390-x0731
     RDKit          3D

 19 20  0  0  0  0  0  0  0  0999 V2000
    1.0540   -1.1160   25.9750 C   0  0  0  0  0  0  0  0  0  0  0  0
    6.3930   -4.7970   26.6950 O   0  0  0  0  0  0  0  0  0  0  0  0
    4.5360   -6.3560   26.0500 O   0  0  0  0  0  0  0  0  0  0  0  0
    5.4390   -5.0760   19.7480 O   0  0  0  0  0  0  0  0  0  0  0  0
    5.9710   -4.4080   20.6210 C   0  0  0  0  0  0  0  0  0  0  0  0
    5.9440   -2.9200   20.5440 C   0  0  0  0  0  0  0  0  0  0  0  0
    5.3100   -5.1580   25.8150 S   0  0  0  0  0  0  0  0  0  0  0  0
    2.1340   -2.1480   25.9110 C   0  0  0  0  0  0  0  0  0  0  0  0
    1.9110   -3.4440   25.3440 C   0  0  0  0  0  0  0  0  0  0  0  0
    2.9390   -4.3880   25.3130 C   0  0  0  0  0  0  0  0  0  0  0  0
    4.1160   -3.8280   25.9050 C   0  0  0  0  0  0  0  0  0  0  0  0
    4.5250   -2.8460   26.4040 C   0  0  0  0  0  0  0  0  0  0  0  0
    3.5400   -1.8430   26.4700 C   0  0  0  0  0  0  0  0  0  0  0  0
    6.6450   -5.0230   21.7430 N   0  0  0  0  0  0  0  0  0  0  0  0
    7.4410   -4.2450   22.7570 C   0  0  0  0  0  0  0  0  0  0  0  0
    6.5420   -4.0380   23.7980 C   0  0  0  0  0  0  0  0  0  0  0  0
    5.8970   -5.1370   24.2500 N   0  0  0  0  0  0  0  0  0  0  0  0
    5.2130   -6.0210   23.3210 C   0  0  0  0  0  0  0  0  0  0  0  0
    6.0670   -6.2570   22.2550 C   0  0  0  0  0  0  0  0  0  0  0  0
  4  5  2  0
  5  6  1  0
  2  7  2  0
  3  7  2  0
  1  8  1  0
  8  9  2  0
  9 10  1  0
  7 11  1  0
 10 11  2  0
 11 12  1  0
  8 13  1  0
 12 13  2  0
  5 14  1  0
 14 15  1  0
 15 16  1  0
  7 17  1  0
 16 17  1  0
 17 18  1  0
 14 19  1  0
 18 19  1  0
M  END
