x0390-x0786
     RDKit          3D

 18 19  0  0  0  0  0  0  0  0999 V2000
    6.8090   -4.4530   21.9310 N   0  0  0  0  0  0  0  0  0  0  0  0
    6.2990   -2.6950   20.4340 C   0  0  0  0  0  0  0  0  0  0  0  0
    5.6250   -4.9390   20.0070 O   0  0  0  0  0  0  0  0  0  0  0  0
    6.2080   -4.1460   20.7480 C   0  0  0  0  0  0  0  0  0  0  0  0
    3.5320   -7.9320   24.9540 O   0  0  0  0  0  0  0  0  0  0  0  0
    3.1560   -7.0460   24.1880 C   0  0  0  0  0  0  0  0  0  0  0  0
    5.8940   -4.6250   22.9480 C   0  0  0  0  0  0  0  0  0  0  0  0
    5.0270   -5.7620   22.9870 C   0  0  0  0  0  0  0  0  0  0  0  0
    4.1310   -5.8500   24.0500 C   0  0  0  0  0  0  0  0  0  0  0  0
    4.3090   -4.7110   24.8980 C   0  0  0  0  0  0  0  0  0  0  0  0
    4.9000   -3.7170   25.0760 C   0  0  0  0  0  0  0  0  0  0  0  0
    5.8300   -3.5420   24.0520 C   0  0  0  0  0  0  0  0  0  0  0  0
    1.9390   -5.8710   23.9920 C   0  0  0  0  0  0  0  0  0  0  0  0
    0.6740   -5.2740   23.8670 C   0  0  0  0  0  0  0  0  0  0  0  0
   -0.5270   -6.4210   24.4760 S   0  0  0  0  0  0  0  0  0  0  0  0
    0.4500   -7.6960   25.2310 C   0  0  0  0  0  0  0  0  0  0  0  0
    0.7060   -7.9070   23.8740 C   0  0  0  0  0  0  0  0  0  0  0  0
    1.8960   -7.1970   23.3960 N   0  0  0  0  0  0  0  0  0  0  0  0
  1  4  1  0
  2  4  1  0
  3  4  2  0
  5  6  2  0
  1  7  1  0
  7  8  2  0
  6  9  1  0
  8  9  1  0
  9 10  2  0
 10 11  1  0
  7 12  1  0
 11 12  2  0
 13 14  1  0
 14 15  1  0
 15 16  1  0
 16 17  1  0
  6 18  1  0
 13 18  1  0
 17 18  1  0
M  END
