x0390-x1012
     RDKit          3D

 18 20  0  0  0  0  0  0  0  0999 V2000
   22.4720   17.8540    2.7420 O   0  0  0  0  0  0  0  0  0  0  0  0
   23.1230   16.5010    5.1880 C   0  0  0  0  0  0  0  0  0  0  0  0
   22.6120   15.4130    4.3450 N   0  0  0  0  0  0  0  0  0  0  0  0
   22.0060   18.3920    3.7400 C   0  0  0  0  0  0  0  0  0  0  0  0
   22.3010   17.7530    5.0360 C   0  0  0  0  0  0  0  0  0  0  0  0
   21.7150   18.4300    6.2710 C   0  0  0  0  0  0  0  0  0  0  0  0
   20.9480   19.6020    6.1410 C   0  0  0  0  0  0  0  0  0  0  0  0
   20.7090   20.1640    4.8610 C   0  0  0  0  0  0  0  0  0  0  0  0
   21.2430   19.5480    3.6420 C   0  0  0  0  0  0  0  0  0  0  0  0
   24.7810   14.2000    4.9150 N   0  0  0  0  0  0  0  0  0  0  0  0
   23.5270   14.2870    4.1460 C   0  0  0  0  0  0  0  0  0  0  0  0
   23.3720   13.2550    3.3010 N   0  0  0  0  0  0  0  0  0  0  0  0
   24.4750   12.4280    3.4350 C   0  0  0  0  0  0  0  0  0  0  0  0
   25.3040   12.9740    4.3800 C   0  0  0  0  0  0  0  0  0  0  0  0
   26.5060   12.4240    4.7810 C   0  0  0  0  0  0  0  0  0  0  0  0
   26.8690   11.2430    4.1660 C   0  0  0  0  0  0  0  0  0  0  0  0
   26.0850   10.6220    3.1960 C   0  0  0  0  0  0  0  0  0  0  0  0
   24.8660   11.2190    2.8190 C   0  0  0  0  0  0  0  0  0  0  0  0
  2  3  1  0
  1  4  1  0
  2  5  1  0
  4  5  2  0
  5  6  1  0
  6  7  2  0
  7  8  1  0
  4  9  1  0
  8  9  2  0
  3 11  1  0
 10 11  2  0
 11 12  1  0
 12 13  1  0
 10 14  1  0
 13 14  2  0
 14 15  1  0
 15 16  2  0
 16 17  1  0
 13 18  1  0
 17 18  2  0
M  END
