x0390-x0397
     RDKit          3D

 15 16  0  0  0  0  0  0  0  0999 V2000
    7.9630   -1.5200   21.0240 C   0  0  0  0  0  0  0  0  0  0  0  0
    6.8440   -1.9470   20.1610 N   0  0  0  0  0  0  0  0  0  0  0  0
    6.7910   -1.6060   18.8290 C   0  0  0  0  0  0  0  0  0  0  0  0
    3.6020    2.4200   19.2800 C   0  0  0  0  0  0  0  0  0  0  0  0
    6.0990   -3.0790   20.5580 C   0  0  0  0  0  0  0  0  0  0  0  0
    5.4430   -3.7880   19.7720 O   0  0  0  0  0  0  0  0  0  0  0  0
    6.1680   -3.3810   21.9330 N   0  0  0  0  0  0  0  0  0  0  0  0
    5.0250    0.1890   19.4190 C   0  0  0  0  0  0  0  0  0  0  0  0
    6.0510   -0.2790   18.6220 C   0  0  0  0  0  0  0  0  0  0  0  0
    6.3150    0.5830   17.6420 N   0  0  0  0  0  0  0  0  0  0  0  0
    5.4300    1.6310   17.8220 O   0  0  0  0  0  0  0  0  0  0  0  0
    4.6490    1.3820   18.9050 C   0  0  0  0  0  0  0  0  0  0  0  0
    6.5970   -5.3650   23.1780 C   0  0  0  0  0  0  0  0  0  0  0  0
    5.7650   -4.6650   22.4540 C   0  0  0  0  0  0  0  0  0  0  0  0
    5.8970   -5.7630   21.7440 C   0  0  0  0  0  0  0  0  0  0  0  0
  1  2  1  0
  2  3  1  0
  2  5  1  0
  5  6  2  0
  5  7  1  0
  3  9  1  0
  8  9  1  0
  9 10  2  0
 10 11  1  0
  4 12  1  0
  8 12  2  0
 11 12  1  0
  7 14  1  0
 13 14  1  0
 13 15  1  0
 14 15  1  0
M  END
