x0390-x0755
     RDKit          3D

 20 21  0  0  0  0  0  0  0  0999 V2000
    4.3880   -6.2800   26.2530 O   0  0  0  0  0  0  0  0  0  0  0  0
    6.0860   -4.5420   26.8730 O   0  0  0  0  0  0  0  0  0  0  0  0
    5.5570   -4.6050   19.8670 O   0  0  0  0  0  0  0  0  0  0  0  0
    6.3680   -4.3180   20.7570 C   0  0  0  0  0  0  0  0  0  0  0  0
    7.1590   -3.0340   20.6980 C   0  0  0  0  0  0  0  0  0  0  0  0
    1.9450   -5.4230   25.7070 F   0  0  0  0  0  0  0  0  0  0  0  0
    5.5340   -1.9910   26.0840 F   0  0  0  0  0  0  0  0  0  0  0  0
    5.0800   -5.0430   25.9670 S   0  0  0  0  0  0  0  0  0  0  0  0
    2.3340   -4.1440   25.7750 C   0  0  0  0  0  0  0  0  0  0  0  0
    3.8490   -3.7590   25.9040 C   0  0  0  0  0  0  0  0  0  0  0  0
    4.2560   -2.3790   25.9750 C   0  0  0  0  0  0  0  0  0  0  0  0
    3.2440   -1.4130   25.9260 C   0  0  0  0  0  0  0  0  0  0  0  0
    1.9870   -2.0680   25.8110 C   0  0  0  0  0  0  0  0  0  0  0  0
    1.4180   -3.0850   25.7360 C   0  0  0  0  0  0  0  0  0  0  0  0
    6.6120   -5.2010   21.8950 N   0  0  0  0  0  0  0  0  0  0  0  0
    7.4600   -4.8040   22.9690 C   0  0  0  0  0  0  0  0  0  0  0  0
    6.6570   -4.1670   23.9290 C   0  0  0  0  0  0  0  0  0  0  0  0
    5.6590   -5.1360   24.3970 N   0  0  0  0  0  0  0  0  0  0  0  0
    4.8370   -5.7310   23.4160 C   0  0  0  0  0  0  0  0  0  0  0  0
    5.6150   -6.1150   22.3300 C   0  0  0  0  0  0  0  0  0  0  0  0
  3  4  2  0
  4  5  1  0
  1  8  2  0
  2  8  2  0
  6  9  1  0
  8 10  1  0
  9 10  2  0
  7 11  1  0
 10 11  1  0
 11 12  2  0
 12 13  1  0
  9 14  1  0
 13 14  2  0
  4 15  1  0
 15 16  1  0
 16 17  1  0
  8 18  1  0
 17 18  1  0
 18 19  1  0
 15 20  1  0
 19 20  1  0
M  END
