x0426-x0434
     RDKit          3D

 28 30  0  0  0  0  0  0  0  0999 V2000
    2.2970    1.8750   23.7980 C   0  0  0  0  0  0  0  0  0  0  0  0
    2.2330    0.4460   23.7750 O   0  0  0  0  0  0  0  0  0  0  0  0
    3.3070    2.5870   23.1760 N   0  0  0  0  0  0  0  0  0  0  0  0
    4.3620    1.9550   22.5020 C   0  0  0  0  0  0  0  0  0  0  0  0
    4.0090    1.0180   21.3710 C   0  0  0  0  0  0  0  0  0  0  0  0
    2.7300    4.3800   25.2030 F   0  0  0  0  0  0  0  0  0  0  0  0
    8.6740    1.1330   21.0650 O   0  0  0  0  0  0  0  0  0  0  0  0
    8.2050    0.0600   21.4860 C   0  0  0  0  0  0  0  0  0  0  0  0
    8.9240   -0.7930   22.3050 N   0  0  0  0  0  0  0  0  0  0  0  0
    6.9190   -0.3920   21.1780 N   0  0  0  0  0  0  0  0  0  0  0  0
    1.4980    3.8500   25.1800 C   0  0  0  0  0  0  0  0  0  0  0  0
    1.2420    2.6470   24.5170 C   0  0  0  0  0  0  0  0  0  0  0  0
   -0.1880    2.0970   24.5310 C   0  0  0  0  0  0  0  0  0  0  0  0
   -1.1610    2.8370   25.2130 C   0  0  0  0  0  0  0  0  0  0  0  0
   -0.8350    4.0380   25.8570 C   0  0  0  0  0  0  0  0  0  0  0  0
    0.4740    4.5370   25.8400 C   0  0  0  0  0  0  0  0  0  0  0  0
    6.2110    0.1910   20.1100 C   0  0  0  0  0  0  0  0  0  0  0  0
    6.8270    0.1430   18.8840 C   0  0  0  0  0  0  0  0  0  0  0  0
    6.3530    0.6580   17.7430 N   0  0  0  0  0  0  0  0  0  0  0  0
    5.1780    1.2680   17.8190 C   0  0  0  0  0  0  0  0  0  0  0  0
    4.4440    1.3710   18.9870 C   0  0  0  0  0  0  0  0  0  0  0  0
    4.9360    0.8300   20.1780 C   0  0  0  0  0  0  0  0  0  0  0  0
   10.5450    0.5640   23.4980 C   0  0  0  0  0  0  0  0  0  0  0  0
   11.8570    0.8370   23.8130 C   0  0  0  0  0  0  0  0  0  0  0  0
   12.8750    0.0620   23.3110 C   0  0  0  0  0  0  0  0  0  0  0  0
   12.6040   -1.0140   22.4810 C   0  0  0  0  0  0  0  0  0  0  0  0
   11.2730   -1.2970   22.1560 C   0  0  0  0  0  0  0  0  0  0  0  0
   10.2420   -0.5000   22.6650 C   0  0  0  0  0  0  0  0  0  0  0  0
  1  2  2  0
  1  3  1  0
  3  4  1  0
  4  5  1  0
  7  8  2  0
  8  9  1  0
  8 10  1  0
  6 11  1  0
  1 12  1  0
 11 12  2  0
 12 13  1  0
 13 14  2  0
 14 15  1  0
 11 16  1  0
 15 16  2  0
 10 17  1  0
 17 18  2  0
 18 19  1  0
 19 20  2  0
 20 21  1  0
  5 22  1  0
 17 22  1  0
 21 22  2  0
 23 24  2  0
 24 25  1  0
 25 26  2  0
 26 27  1  0
  9 28  1  0
 23 28  1  0
 27 28  2  0
M  END
