x0426-x1311
     RDKit          3D

 18 19  0  0  0  0  0  0  0  0999 V2000
    2.3020    1.7400   23.8190 C   0  0  0  0  0  0  0  0  0  0  0  0
    2.2090    0.3140   23.8120 O   0  0  0  0  0  0  0  0  0  0  0  0
    3.3480    2.4210   23.2240 N   0  0  0  0  0  0  0  0  0  0  0  0
    4.1890    1.7870   22.3010 C   0  0  0  0  0  0  0  0  0  0  0  0
    3.5780    1.3870   20.9770 C   0  0  0  0  0  0  0  0  0  0  0  0
    2.7450    4.4140   25.2320 F   0  0  0  0  0  0  0  0  0  0  0  0
    1.5150    3.8790   25.1990 C   0  0  0  0  0  0  0  0  0  0  0  0
    1.2380    2.5390   24.5020 C   0  0  0  0  0  0  0  0  0  0  0  0
   -0.0670    2.0470   24.5110 C   0  0  0  0  0  0  0  0  0  0  0  0
   -1.1740    2.8510   25.2110 C   0  0  0  0  0  0  0  0  0  0  0  0
   -0.8450    4.0690   25.8280 C   0  0  0  0  0  0  0  0  0  0  0  0
    0.4660    4.5700   25.8220 C   0  0  0  0  0  0  0  0  0  0  0  0
    5.6170    0.1080   20.1760 C   0  0  0  0  0  0  0  0  0  0  0  0
    6.5350   -0.1570   19.1610 C   0  0  0  0  0  0  0  0  0  0  0  0
    6.5030    0.4430   17.9560 N   0  0  0  0  0  0  0  0  0  0  0  0
    5.5340    1.3470   17.7480 C   0  0  0  0  0  0  0  0  0  0  0  0
    4.5710    1.6810   18.6930 C   0  0  0  0  0  0  0  0  0  0  0  0
    4.6100    1.0510   19.9360 C   0  0  0  0  0  0  0  0  0  0  0  0
  1  2  2  0
  1  3  1  0
  3  4  1  0
  4  5  1  0
  6  7  1  0
  1  8  1  0
  7  8  2  0
  8  9  1  0
  9 10  2  0
 10 11  1  0
  7 12  1  0
 11 12  2  0
 13 14  2  0
 14 15  1  0
 15 16  2  0
 16 17  1  0
  5 18  1  0
 13 18  1  0
 17 18  2  0
M  END
