x0426-x0831
     RDKit          3D

 38 41  0  0  0  0  0  0  0  0999 V2000
    2.3580    1.7590   23.8510 C   0  0  0  0  0  0  0  0  0  0  0  0
    2.1580    0.3550   23.7800 O   0  0  0  0  0  0  0  0  0  0  0  0
    3.5000    2.3650   23.3440 N   0  0  0  0  0  0  0  0  0  0  0  0
    4.2970    1.7920   22.3240 C   0  0  2  0  0  0  0  0  0  0  0  0
    3.6310    1.5230   20.9990 C   0  0  0  0  0  0  0  0  0  0  0  0
    2.8030    4.3330   25.1760 F   0  0  0  0  0  0  0  0  0  0  0  0
   12.7940   -2.0280   22.2350 C   0  0  0  0  0  0  0  0  0  0  0  0
    5.3710   -4.3100   19.8560 O   0  0  0  0  0  0  0  0  0  0  0  0
   10.1230   -2.3100   23.5670 C   0  0  0  0  0  0  0  0  0  0  0  0
    5.7840   -3.1820   20.1650 C   0  0  0  0  0  0  0  0  0  0  0  0
    5.9520   -2.1500   19.0400 C   0  0  0  0  0  0  0  0  0  0  0  0
    5.0750    0.5440   22.8340 C   0  0  0  0  0  0  0  0  0  0  0  0
    5.0150   -0.5560   21.9510 C   0  0  0  0  0  0  0  0  0  0  0  0
    1.5660    3.8190   25.1390 C   0  0  0  0  0  0  0  0  0  0  0  0
    1.3020    2.5960   24.5180 C   0  0  0  0  0  0  0  0  0  0  0  0
   -0.0060    2.1070   24.5130 C   0  0  0  0  0  0  0  0  0  0  0  0
   -1.0480    2.8310   25.1230 C   0  0  0  0  0  0  0  0  0  0  0  0
   -0.7680    4.0540   25.7430 C   0  0  0  0  0  0  0  0  0  0  0  0
    0.5400    4.5460   25.7490 C   0  0  0  0  0  0  0  0  0  0  0  0
    5.7300    0.4410   20.0750 C   0  0  0  0  0  0  0  0  0  0  0  0
    6.5970    0.2240   19.0090 C   0  0  0  0  0  0  0  0  0  0  0  0
    6.4170    0.7570   17.7990 N   0  0  0  0  0  0  0  0  0  0  0  0
    5.3390    1.5440   17.6470 C   0  0  0  0  0  0  0  0  0  0  0  0
    4.4210    1.8180   18.6400 C   0  0  0  0  0  0  0  0  0  0  0  0
    4.6100    1.2530   19.8900 C   0  0  0  0  0  0  0  0  0  0  0  0
   12.1140   -0.8780   22.9200 C   0  0  0  0  0  0  0  0  0  0  0  0
   10.8740   -0.9990   23.5440 C   0  0  0  0  0  0  0  0  0  0  0  0
   10.2970    0.1110   24.1540 C   0  0  0  0  0  0  0  0  0  0  0  0
   10.9350    1.3380   24.1420 C   0  0  0  0  0  0  0  0  0  0  0  0
   12.1660    1.4650   23.5250 C   0  0  0  0  0  0  0  0  0  0  0  0
   12.7520    0.3640   22.9230 C   0  0  0  0  0  0  0  0  0  0  0  0
    6.1300   -2.8290   21.4860 N   0  0  0  0  0  0  0  0  0  0  0  0
    6.3050   -1.4250   21.9500 C   0  0  1  0  0  0  0  0  0  0  0  0
    7.4350   -0.8640   21.3410 C   0  0  0  0  0  0  0  0  0  0  0  0
    8.6970   -1.5890   21.7900 C   0  0  0  0  0  0  0  0  0  0  0  0
    8.7310   -2.1340   23.1490 N   0  0  0  0  0  0  0  0  0  0  0  0
    7.8250   -3.2710   23.4030 C   0  0  0  0  0  0  0  0  0  0  0  0
    6.8720   -3.8110   22.2970 C   0  0  0  0  0  0  0  0  0  0  0  0
  1  2  2  0
  1  3  1  0
  3  4  1  0
  4  5  1  6
  8 10  2  0
 10 11  1  0
  4 12  1  0
 12 13  1  0
  6 14  1  0
  1 15  1  0
 14 15  2  0
 15 16  1  0
 16 17  2  0
 17 18  1  0
 14 19  1  0
 18 19  2  0
 20 21  2  0
 21 22  1  0
 22 23  2  0
 23 24  1  0
  5 25  1  0
 20 25  1  0
 24 25  2  0
  7 26  1  0
  9 27  1  0
 26 27  2  0
 27 28  1  0
 28 29  2  0
 29 30  1  0
 26 31  1  0
 30 31  2  0
 10 32  1  0
 33 13  1  6
 32 33  1  0
 33 34  1  0
 34 35  1  0
  9 36  1  0
 35 36  1  0
 36 37  1  0
 32 38  1  0
 37 38  1  0
M  END
