x0425-x1119
     RDKit          3D

 17 18  0  0  0  0  0  0  0  0999 V2000
   20.7870    7.9250   22.4840 N   0  0  0  0  0  0  0  0  0  0  0  0
   22.6100    2.2350   25.1080 O   0  0  0  0  0  0  0  0  0  0  0  0
   23.7430    3.6350   26.8100 N   0  0  0  0  0  0  0  0  0  0  0  0
   24.9240    2.9630   24.6310 O   0  0  0  0  0  0  0  0  0  0  0  0
   23.6270    3.2170   25.2000 S   0  0  0  0  0  0  0  0  0  0  0  0
   21.4320    6.8560   23.1080 C   0  0  0  0  0  0  0  0  0  0  0  0
   22.5290    6.1060   22.4090 C   0  0  0  0  0  0  0  0  0  0  0  0
   23.2060    4.9560   23.1180 C   0  0  0  0  0  0  0  0  0  0  0  0
   22.8390    4.5680   24.4030 C   0  0  0  0  0  0  0  0  0  0  0  0
   21.7080    5.3800   25.0580 C   0  0  0  0  0  0  0  0  0  0  0  0
   21.0670    6.4550   24.4140 C   0  0  0  0  0  0  0  0  0  0  0  0
   24.8140    4.8300   28.5190 N   0  0  0  0  0  0  0  0  0  0  0  0
   25.7320    5.7470   28.8960 C   0  0  0  0  0  0  0  0  0  0  0  0
   26.5410    6.4290   28.0010 C   0  0  0  0  0  0  0  0  0  0  0  0
   26.4110    6.1640   26.6510 C   0  0  0  0  0  0  0  0  0  0  0  0
   25.4670    5.2170   26.2380 C   0  0  0  0  0  0  0  0  0  0  0  0
   24.7010    4.5860   27.2010 C   0  0  0  0  0  0  0  0  0  0  0  0
  2  5  2  0
  5  3  1  0
  4  5  2  0
  1  6  1  0
  6  7  2  0
  7  8  1  0
  5  9  1  0
  8  9  2  0
  9 10  1  0
  6 11  1  0
 10 11  2  0
 12 13  2  0
 13 14  1  0
 14 15  2  0
 15 16  1  0
  3 17  1  0
 12 17  1  0
 16 17  2  0
M  END
