x0425-x0689
     RDKit          3D

 17 18  0  0  0  0  0  0  0  0999 V2000
    6.9190   -2.8940   20.7540 C   0  0  0  0  0  0  0  0  0  0  0  0
    5.4260   -4.4780   19.8130 O   0  0  0  0  0  0  0  0  0  0  0  0
    6.2330   -4.2360   20.7150 C   0  0  0  0  0  0  0  0  0  0  0  0
    3.9530   -6.3610   25.9680 O   0  0  0  0  0  0  0  0  0  0  0  0
    5.6310   -4.6110   26.6770 O   0  0  0  0  0  0  0  0  0  0  0  0
    4.6610   -5.1240   25.7300 S   0  0  0  0  0  0  0  0  0  0  0  0
    6.5410   -5.1640   21.6950 N   0  0  0  0  0  0  0  0  0  0  0  0
    5.6450   -6.2580   22.0940 C   0  0  0  0  0  0  0  0  0  0  0  0
    4.7250   -5.9060   23.1080 C   0  0  0  0  0  0  0  0  0  0  0  0
    5.4220   -5.2060   24.2250 N   0  0  0  0  0  0  0  0  0  0  0  0
    6.2630   -4.1830   23.8720 C   0  0  0  0  0  0  0  0  0  0  0  0
    7.1730   -4.6000   22.9030 C   0  0  0  0  0  0  0  0  0  0  0  0
    3.8730   -2.2270   26.0210 S   0  0  0  0  0  0  0  0  0  0  0  0
    3.4110   -3.8470   25.6740 C   0  0  0  0  0  0  0  0  0  0  0  0
    2.0570   -3.9020   25.3920 C   0  0  0  0  0  0  0  0  0  0  0  0
    1.4250   -2.6920   25.4590 C   0  0  0  0  0  0  0  0  0  0  0  0
    2.2760   -1.6430   25.7950 C   0  0  0  0  0  0  0  0  0  0  0  0
  1  3  1  0
  2  3  2  0
  4  6  2  0
  5  6  2  0
  3  7  1  0
  7  8  1  0
  8  9  1  0
  6 10  1  0
  9 10  1  0
 10 11  1  0
  7 12  1  0
 11 12  1  0
  6 14  1  0
 13 14  1  0
 14 15  2  0
 15 16  1  0
 13 17  1  0
 16 17  2  0
M  END
