x0425-x1086
     RDKit          3D

 13 13  0  0  0  0  0  0  0  0999 V2000
    5.7890    3.4720   -7.3420 N   0  0  0  0  0  0  0  0  0  0  0  0
    4.1130   -1.4730   -9.4110 C   0  0  0  0  0  0  0  0  0  0  0  0
    4.4360    2.2530   -5.9030 O   0  0  0  0  0  0  0  0  0  0  0  0
    6.7570    1.5340   -5.9350 O   0  0  0  0  0  0  0  0  0  0  0  0
    5.2840    1.0100   -8.1020 C   0  0  0  0  0  0  0  0  0  0  0  0
    7.9520   -3.9410   -8.0740 F   0  0  0  0  0  0  0  0  0  0  0  0
    5.5860    1.9970   -6.6310 S   0  0  0  0  0  0  0  0  0  0  0  0
    5.4200   -1.4830   -8.6850 C   0  0  0  0  0  0  0  0  0  0  0  0
    5.9480   -0.3300   -8.0630 C   0  0  0  0  0  0  0  0  0  0  0  0
    7.2610   -0.4320   -7.3240 C   0  0  0  0  0  0  0  0  0  0  0  0
    7.9460   -1.5910   -7.2720 C   0  0  0  0  0  0  0  0  0  0  0  0
    7.3390   -2.7860   -8.0130 C   0  0  0  0  0  0  0  0  0  0  0  0
    6.1280   -2.6880   -8.6540 C   0  0  0  0  0  0  0  0  0  0  0  0
  7  1  1  0
  3  7  2  0
  4  7  2  0
  5  7  1  0
  2  8  1  0
  5  9  1  0
  8  9  2  0
  9 10  1  0
 10 11  2  0
  6 12  1  0
 11 12  1  0
  8 13  1  0
 12 13  2  0
M  END
