x0425-x0759
     RDKit          3D

 14 15  0  0  0  0  0  0  0  0999 V2000
    5.7110   -4.0020   20.0640 O   0  0  0  0  0  0  0  0  0  0  0  0
    6.3840   -2.9500   20.2390 C   0  0  0  0  0  0  0  0  0  0  0  0
    6.6570   -2.0250   19.0740 C   0  0  0  0  0  0  0  0  0  0  0  0
   12.4140   -0.8360   24.0680 F   0  0  0  0  0  0  0  0  0  0  0  0
    6.8830   -2.6700   21.5040 N   0  0  0  0  0  0  0  0  0  0  0  0
    7.2160   -1.3090   21.9850 C   0  0  0  0  0  0  0  0  0  0  0  0
    8.5110   -1.2070   22.5380 C   0  0  0  0  0  0  0  0  0  0  0  0
    9.0570   -2.3540   23.3370 C   0  0  0  0  0  0  0  0  0  0  0  0
    8.2190   -3.4840   23.5540 C   0  0  0  0  0  0  0  0  0  0  0  0
    7.1050   -3.7610   22.4640 C   0  0  0  0  0  0  0  0  0  0  0  0
    9.3160   -0.0620   22.3660 C   0  0  0  0  0  0  0  0  0  0  0  0
   10.5990    0.0390   22.8870 C   0  0  0  0  0  0  0  0  0  0  0  0
   11.1600   -0.9990   23.6050 C   0  0  0  0  0  0  0  0  0  0  0  0
   10.4060   -2.1680   23.8250 C   0  0  0  0  0  0  0  0  0  0  0  0
  1  2  2  0
  2  3  1  0
  2  5  1  0
  5  6  1  0
  6  7  1  0
  7  8  2  0
  8  9  1  0
  5 10  1  0
  9 10  1  0
  7 11  1  0
 11 12  2  0
  4 13  1  0
 12 13  1  0
  8 14  1  0
 13 14  2  0
M  END
