x0426-x0161
     RDKit          3D

 14 14  0  0  0  0  0  0  0  0999 V2000
   13.3520   -2.3360   24.3640 C   0  0  0  0  0  0  0  0  0  0  0  0
   12.8030   -1.0130   24.4530 O   0  0  0  0  0  0  0  0  0  0  0  0
   12.8800   -0.3360   23.4170 C   0  0  0  0  0  0  0  0  0  0  0  0
   13.4710   -0.7020   22.4160 O   0  0  0  0  0  0  0  0  0  0  0  0
   10.1840    5.2680   23.6310 S   0  0  0  0  0  0  0  0  0  0  0  0
   11.0760    6.2390   23.0480 O   0  0  0  0  0  0  0  0  0  0  0  0
    9.6440    5.4590   24.9580 O   0  0  0  0  0  0  0  0  0  0  0  0
    8.8490    5.0900   22.6300 N   0  0  0  0  0  0  0  0  0  0  0  0
   12.2070    1.0190   23.4510 C   0  0  0  0  0  0  0  0  0  0  0  0
   12.8540    2.1500   22.9840 C   0  0  0  0  0  0  0  0  0  0  0  0
   12.2380    3.5470   23.0060 C   0  0  0  0  0  0  0  0  0  0  0  0
   10.9640    3.6670   23.5310 C   0  0  0  0  0  0  0  0  0  0  0  0
   10.2510    2.3910   24.0360 C   0  0  0  0  0  0  0  0  0  0  0  0
   10.9080    1.1410   23.9710 C   0  0  0  0  0  0  0  0  0  0  0  0
  1  2  1  0
  2  3  1  0
  3  4  2  0
  5  6  2  0
  5  7  2  0
  5  8  1  0
  3  9  1  0
  9 10  2  0
 10 11  1  0
  5 12  1  0
 11 12  2  0
 12 13  1  0
  9 14  1  0
 13 14  2  0
M  END
