x0426-x1375
     RDKit          3D

 18 19  0  0  0  0  0  0  0  0999 V2000
    5.6520   -4.7260   20.2390 O   0  0  0  0  0  0  0  0  0  0  0  0
    6.3070   -4.1490   21.1430 C   0  0  0  0  0  0  0  0  0  0  0  0
    7.4230   -3.1810   20.8010 C   0  0  0  0  0  0  0  0  0  0  0  0
    6.1270   -4.3000   22.5020 N   0  0  0  0  0  0  0  0  0  0  0  0
    2.0290   -6.7890   24.0880 O   0  0  0  0  0  0  0  0  0  0  0  0
    4.4470   -7.9140   24.3870 O   0  0  0  0  0  0  0  0  0  0  0  0
   10.5340   -5.0980   25.7230 F   0  0  0  0  0  0  0  0  0  0  0  0
    7.8100   -3.2200   23.9560 C   0  0  0  0  0  0  0  0  0  0  0  0
    8.9200   -3.4180   24.7750 C   0  0  0  0  0  0  0  0  0  0  0  0
    9.5220   -4.8060   24.9760 C   0  0  0  0  0  0  0  0  0  0  0  0
    8.9720   -5.8260   24.3350 C   0  0  0  0  0  0  0  0  0  0  0  0
    7.7860   -5.6410   23.4510 C   0  0  0  0  0  0  0  0  0  0  0  0
    7.2590   -4.3530   23.3130 C   0  0  0  0  0  0  0  0  0  0  0  0
    5.0620   -4.7680   24.4330 C   0  0  0  0  0  0  0  0  0  0  0  0
    5.3440   -5.3600   23.1950 C   0  0  1  0  0  0  0  0  0  0  0  0
    4.1930   -5.8370   22.6450 C   0  0  0  0  0  0  0  0  0  0  0  0
    3.6080   -6.6030   24.1220 S   0  0  0  0  0  0  0  0  0  0  0  0
    4.0800   -5.3620   25.1260 C   0  0  0  0  0  0  0  0  0  0  0  0
  1  2  2  0
  2  3  1  0
  2  4  1  0
  8  9  2  0
  7 10  1  0
  9 10  1  0
 10 11  2  0
 11 12  1  0
  4 13  1  0
  8 13  1  0
 12 13  2  0
 15  4  1  6
 14 15  1  0
 15 16  1  0
 17  5  1  0
  6 17  1  0
 16 17  1  0
 14 18  2  0
 17 18  1  0
M  END
