x0425-x0104
     RDKit          3D

 16 17  0  0  0  0  0  0  0  0999 V2000
    9.0210    6.5360   22.6410 C   0  0  0  0  0  0  0  0  0  0  0  0
   10.3050    6.1870   23.3570 C   0  0  0  0  0  0  0  0  0  0  0  0
   10.4030    6.3350   24.5710 O   0  0  0  0  0  0  0  0  0  0  0  0
   11.3260    5.7000   22.5660 N   0  0  0  0  0  0  0  0  0  0  0  0
   12.5450    5.0400   23.0840 C   0  0  0  0  0  0  0  0  0  0  0  0
   12.7260    3.7200   22.5970 C   0  0  0  0  0  0  0  0  0  0  0  0
   13.5650   -1.9780   22.1520 F   0  0  0  0  0  0  0  0  0  0  0  0
   11.8080    2.5900   23.1300 C   0  0  0  0  0  0  0  0  0  0  0  0
   10.6190    2.8740   23.7820 C   0  0  0  0  0  0  0  0  0  0  0  0
    9.9710    1.6450   24.1560 N   0  0  0  0  0  0  0  0  0  0  0  0
   10.8080    0.5650   23.7010 C   0  0  0  0  0  0  0  0  0  0  0  0
   11.9300    1.1310   23.0810 C   0  0  0  0  0  0  0  0  0  0  0  0
   10.6050   -0.8180   23.8140 C   0  0  0  0  0  0  0  0  0  0  0  0
   11.5630   -1.6750   23.2750 C   0  0  0  0  0  0  0  0  0  0  0  0
   12.6690   -1.1560   22.6660 C   0  0  0  0  0  0  0  0  0  0  0  0
   12.8640    0.2170   22.5760 C   0  0  0  0  0  0  0  0  0  0  0  0
  1  2  1  0
  2  3  2  0
  2  4  1  0
  4  5  1  0
  5  6  1  0
  6  8  1  0
  8  9  2  0
  9 10  1  0
 10 11  1  0
  8 12  1  0
 11 12  2  0
 11 13  1  0
 13 14  2  0
  7 15  1  0
 14 15  1  0
 12 16  1  0
 15 16  2  0
M  END
