x0425-x0678
     RDKit          3D

 16 17  0  0  0  0  0  0  0  0999 V2000
    9.1410    1.4460   21.3160 O   0  0  0  0  0  0  0  0  0  0  0  0
    8.6550    0.3980   21.7860 C   0  0  0  0  0  0  0  0  0  0  0  0
    9.1560   -0.2450   23.0430 C   0  0  0  0  0  0  0  0  0  0  0  0
    7.6220   -0.1550   21.1240 N   0  0  0  0  0  0  0  0  0  0  0  0
   11.1040   -1.4960   22.3070 C   0  0  0  0  0  0  0  0  0  0  0  0
   12.4670   -1.8480   22.4290 C   0  0  0  0  0  0  0  0  0  0  0  0
   13.2870   -1.0460   23.4520 C   0  0  0  0  0  0  0  0  0  0  0  0
   12.6200   -0.3980   24.4780 C   0  0  0  0  0  0  0  0  0  0  0  0
   11.1170   -0.3990   24.3860 C   0  0  0  0  0  0  0  0  0  0  0  0
   10.6760   -0.4130   23.0890 C   0  0  0  0  0  0  0  0  0  0  0  0
    5.6740    1.1540   20.3390 C   0  0  0  0  0  0  0  0  0  0  0  0
    4.9180    1.5660   19.2440 C   0  0  0  0  0  0  0  0  0  0  0  0
    5.2850    1.1340   18.0010 C   0  0  0  0  0  0  0  0  0  0  0  0
    6.3260    0.3330   17.7810 N   0  0  0  0  0  0  0  0  0  0  0  0
    7.0390   -0.0530   18.8500 C   0  0  0  0  0  0  0  0  0  0  0  0
    6.7680    0.3270   20.1470 C   0  0  0  0  0  0  0  0  0  0  0  0
  1  2  2  0
  2  3  1  0
  2  4  1  0
  5  6  1  0
  6  7  1  0
  7  8  1  0
  8  9  1  0
  3 10  1  0
  5 10  1  0
  9 10  1  0
 11 12  2  0
 12 13  1  0
 13 14  2  0
 14 15  1  0
  4 16  1  0
 11 16  1  0
 15 16  2  0
M  END
