x0426-x0734
     RDKit          3D

 18 19  0  0  0  0  0  0  0  0999 V2000
    2.3050    1.7420   23.8370 C   0  0  0  0  0  0  0  0  0  0  0  0
    2.2080    0.3170   23.8320 O   0  0  0  0  0  0  0  0  0  0  0  0
    3.3560    2.4200   23.2470 N   0  0  0  0  0  0  0  0  0  0  0  0
    4.1920    1.7860   22.3260 C   0  0  0  0  0  0  0  0  0  0  0  0
    3.5720    1.3690   21.0140 C   0  0  0  0  0  0  0  0  0  0  0  0
    2.7430    4.4200   25.2400 F   0  0  0  0  0  0  0  0  0  0  0  0
    1.5130    3.8840   25.2060 C   0  0  0  0  0  0  0  0  0  0  0  0
    1.2380    2.5440   24.5140 C   0  0  0  0  0  0  0  0  0  0  0  0
   -0.0650    2.0480   24.5200 C   0  0  0  0  0  0  0  0  0  0  0  0
   -1.1740    2.8540   25.2130 C   0  0  0  0  0  0  0  0  0  0  0  0
   -0.8490    4.0750   25.8270 C   0  0  0  0  0  0  0  0  0  0  0  0
    0.4640    4.5770   25.8220 C   0  0  0  0  0  0  0  0  0  0  0  0
    5.6000    0.0770   20.2050 C   0  0  0  0  0  0  0  0  0  0  0  0
    6.5150   -0.1920   19.1890 C   0  0  0  0  0  0  0  0  0  0  0  0
    6.4830    0.4160   17.9870 N   0  0  0  0  0  0  0  0  0  0  0  0
    5.5170    1.3260   17.7840 C   0  0  0  0  0  0  0  0  0  0  0  0
    4.5610    1.6630   18.7320 C   0  0  0  0  0  0  0  0  0  0  0  0
    4.5970    1.0270   19.9710 C   0  0  0  0  0  0  0  0  0  0  0  0
  1  2  2  0
  1  3  1  0
  3  4  1  0
  4  5  1  0
  6  7  1  0
  1  8  1  0
  7  8  2  0
  8  9  1  0
  9 10  2  0
 10 11  1  0
  7 12  1  0
 11 12  2  0
 13 14  2  0
 14 15  1  0
 15 16  2  0
 16 17  1  0
  5 18  1  0
 13 18  1  0
 17 18  2  0
M  END
