x0434-x0336
     RDKit          3D

 15 15  0  0  0  0  0  0  0  0999 V2000
    5.2920  -29.9060   10.9210 C   0  0  0  0  0  0  0  0  0  0  0  0
    4.9460  -29.8840    9.4510 C   0  0  0  0  0  0  0  0  0  0  0  0
    4.8350  -30.9380    8.8400 O   0  0  0  0  0  0  0  0  0  0  0  0
    4.7650  -28.5260    8.8790 N   0  0  0  0  0  0  0  0  0  0  0  0
    4.9720  -27.3990    9.7140 C   0  0  0  0  0  0  0  0  0  0  0  0
    1.3760  -22.5570    9.2170 S   0  0  0  0  0  0  0  0  0  0  0  0
    1.7520  -21.5100   10.1240 O   0  0  0  0  0  0  0  0  0  0  0  0
   -0.0050  -22.9610    9.3150 O   0  0  0  0  0  0  0  0  0  0  0  0
    1.6850  -21.9590    7.6700 N   0  0  0  0  0  0  0  0  0  0  0  0
    4.1440  -26.2820    9.5810 C   0  0  0  0  0  0  0  0  0  0  0  0
    3.7190  -25.8790    8.1880 C   0  0  0  0  0  0  0  0  0  0  0  0
    2.8280  -24.6670    8.0350 C   0  0  0  0  0  0  0  0  0  0  0  0
    2.4320  -23.9780    9.3220 C   0  0  0  0  0  0  0  0  0  0  0  0
    2.8740  -24.4420   10.5610 C   0  0  0  0  0  0  0  0  0  0  0  0
    3.7100  -25.5550   10.6930 C   0  0  0  0  0  0  0  0  0  0  0  0
  1  2  1  0
  2  3  2  0
  2  4  1  0
  4  5  1  0
  6  7  2  0
  6  8  2  0
  6  9  1  0
  5 10  1  0
 10 11  2  0
 11 12  1  0
  6 13  1  0
 12 13  2  0
 13 14  1  0
 10 15  1  0
 14 15  2  0
M  END
