x0464-x1375
     RDKit          3D

 18 19  0  0  0  0  0  0  0  0999 V2000
    5.7000   -4.5130   20.0830 O   0  0  0  0  0  0  0  0  0  0  0  0
    6.3530   -4.0150   21.0280 C   0  0  0  0  0  0  0  0  0  0  0  0
    7.5440   -3.1100   20.7640 C   0  0  0  0  0  0  0  0  0  0  0  0
    6.0820   -4.2220   22.3870 N   0  0  0  0  0  0  0  0  0  0  0  0
    2.2780   -6.8960   23.7730 O   0  0  0  0  0  0  0  0  0  0  0  0
    4.4170   -7.7760   25.0270 O   0  0  0  0  0  0  0  0  0  0  0  0
   10.4010   -5.1040   25.8160 F   0  0  0  0  0  0  0  0  0  0  0  0
    7.6740   -3.2830   24.0210 C   0  0  0  0  0  0  0  0  0  0  0  0
    8.7450   -3.4460   24.8930 C   0  0  0  0  0  0  0  0  0  0  0  0
    9.4090   -4.8110   25.0350 C   0  0  0  0  0  0  0  0  0  0  0  0
    8.8900   -5.9190   24.2180 C   0  0  0  0  0  0  0  0  0  0  0  0
    7.7390   -5.6260   23.3200 C   0  0  0  0  0  0  0  0  0  0  0  0
    7.1910   -4.3650   23.2630 C   0  0  0  0  0  0  0  0  0  0  0  0
    4.5320   -4.2820   24.1210 C   0  0  0  0  0  0  0  0  0  0  0  0
    4.8400   -4.8410   22.8820 C   0  0  2  0  0  0  0  0  0  0  0  0
    4.7750   -6.2390   22.8100 C   0  0  0  0  0  0  0  0  0  0  0  0
    3.7700   -6.5770   24.2270 S   0  0  0  0  0  0  0  0  0  0  0  0
    3.9340   -5.0990   24.9980 C   0  0  0  0  0  0  0  0  0  0  0  0
  1  2  2  0
  2  3  1  0
  2  4  1  0
  8  9  2  0
  7 10  1  0
  9 10  1  0
 10 11  2  0
 11 12  1  0
  4 13  1  0
  8 13  1  0
 12 13  2  0
 15  4  1  1
 14 15  1  0
 15 16  1  0
 17  5  1  0
  6 17  1  0
 16 17  1  0
 14 18  2  0
 17 18  1  0
M  END
