x0478-x1418
     RDKit          3D

 15 15  0  0  0  0  0  0  0  0999 V2000
   16.0340    2.0090  -14.4310 C   0  0  0  0  0  0  0  0  0  0  0  0
   16.8160    2.8220  -13.9560 O   0  0  0  0  0  0  0  0  0  0  0  0
   16.5720    3.0960  -12.7830 C   0  0  0  0  0  0  0  0  0  0  0  0
   15.6830    3.8390  -12.4090 O   0  0  0  0  0  0  0  0  0  0  0  0
   17.6250    1.1920   -8.1890 N   0  0  0  0  0  0  0  0  0  0  0  0
   17.8440    2.4180   -7.0730 S   0  0  0  0  0  0  0  0  0  0  0  0
   17.4790    1.8800   -5.7830 O   0  0  0  0  0  0  0  0  0  0  0  0
   19.0740    3.1460   -7.2760 O   0  0  0  0  0  0  0  0  0  0  0  0
   16.5410    3.4750   -7.5470 C   0  0  0  0  0  0  0  0  0  0  0  0
   17.5170    2.3670  -11.8520 C   0  0  0  0  0  0  0  0  0  0  0  0
   17.1600    2.1390  -10.5350 C   0  0  0  0  0  0  0  0  0  0  0  0
   18.0730    1.4070   -9.5720 C   0  0  0  0  0  0  0  0  0  0  0  0
   19.2890    0.9740  -10.0640 C   0  0  0  0  0  0  0  0  0  0  0  0
   19.6860    1.1960  -11.4150 C   0  0  0  0  0  0  0  0  0  0  0  0
   18.7760    1.8960  -12.2870 C   0  0  0  0  0  0  0  0  0  0  0  0
  1  2  1  0
  2  3  1  0
  3  4  2  0
  6  5  1  0
  6  7  2  0
  6  8  2  0
  6  9  1  0
  3 10  1  0
 10 11  2  0
  5 12  1  0
 11 12  1  0
 12 13  2  0
 13 14  1  0
 10 15  1  0
 14 15  2  0
M  END
