x0478-x0978
     RDKit          3D

 14 13  0  0  0  0  0  0  0  0999 V2000
    2.0110   -8.3550   24.6640 C   0  0  0  0  0  0  0  0  0  0  0  0
    1.8140   -5.6950   23.3120 N   0  0  0  0  0  0  0  0  0  0  0  0
    4.2570   -7.7390   24.8010 O   0  0  0  0  0  0  0  0  0  0  0  0
    3.1150   -7.3320   24.6420 C   0  0  1  0  0  0  0  0  0  0  0  0
    5.4670   -6.4240   22.7700 N   0  0  0  0  0  0  0  0  0  0  0  0
    0.6650   -7.1350   21.9280 O   0  0  0  0  0  0  0  0  0  0  0  0
    3.0280   -6.5260   23.3480 C   0  0  2  0  0  0  0  0  0  0  0  0
    4.2290   -4.4150   23.1660 O   0  0  0  0  0  0  0  0  0  0  0  0
    0.6880   -6.1350   22.6290 C   0  0  0  0  0  0  0  0  0  0  0  0
   -0.4320   -5.3300   22.8120 C   0  0  0  0  0  0  0  0  0  0  0  0
    4.2610   -5.6470   23.0970 C   0  0  0  0  0  0  0  0  0  0  0  0
    6.7390   -5.7960   22.4850 C   0  0  0  0  0  0  0  0  0  0  0  0
    6.8330   -5.1660   21.2500 C   0  0  0  0  0  0  0  0  0  0  0  0
    5.7270   -5.1920   20.3760 C   0  0  0  0  0  0  0  0  0  0  0  0
  4  1  1  6
  3  4  1  0
  7  2  1  1
  4  7  1  0
  2  9  1  0
  6  9  2  0
  9 10  1  0
  5 11  1  0
  7 11  1  0
  8 11  2  0
  5 12  1  0
 12 13  2  3
 13 14  1  0
M  END
