x0478-x0434
     RDKit          3D

 15 15  0  0  0  0  0  0  0  0999 V2000
   16.0430    2.0020  -14.4460 C   0  0  0  0  0  0  0  0  0  0  0  0
   16.8200    2.8150  -13.9590 O   0  0  0  0  0  0  0  0  0  0  0  0
   16.5680    3.0870  -12.7880 C   0  0  0  0  0  0  0  0  0  0  0  0
   15.6770    3.8270  -12.4150 O   0  0  0  0  0  0  0  0  0  0  0  0
   17.6250    1.1780   -8.1970 N   0  0  0  0  0  0  0  0  0  0  0  0
   17.8520    2.4010   -7.0720 S   0  0  0  0  0  0  0  0  0  0  0  0
   17.4970    1.8570   -5.7820 O   0  0  0  0  0  0  0  0  0  0  0  0
   19.0750    3.1380   -7.2810 O   0  0  0  0  0  0  0  0  0  0  0  0
   16.5420    3.4590   -7.5250 C   0  0  0  0  0  0  0  0  0  0  0  0
   17.5150    2.3620  -11.8550 C   0  0  0  0  0  0  0  0  0  0  0  0
   17.1570    2.1300  -10.5390 C   0  0  0  0  0  0  0  0  0  0  0  0
   18.0770    1.3960   -9.5770 C   0  0  0  0  0  0  0  0  0  0  0  0
   19.2940    0.9690  -10.0650 C   0  0  0  0  0  0  0  0  0  0  0  0
   19.6900    1.1940  -11.4120 C   0  0  0  0  0  0  0  0  0  0  0  0
   18.7790    1.8950  -12.2870 C   0  0  0  0  0  0  0  0  0  0  0  0
  1  2  1  0
  2  3  1  0
  3  4  2  0
  6  5  1  0
  6  7  2  0
  6  8  2  0
  6  9  1  0
  3 10  1  0
 10 11  2  0
  5 12  1  0
 11 12  1  0
 12 13  2  0
 13 14  1  0
 10 15  1  0
 14 15  2  0
M  END
