x0478-x0771
     RDKit          3D

 15 15  0  0  0  0  0  0  0  0999 V2000
   16.0450    1.9970  -14.4320 C   0  0  0  0  0  0  0  0  0  0  0  0
   16.8160    2.8220  -13.9560 O   0  0  0  0  0  0  0  0  0  0  0  0
   16.5660    3.0980  -12.7830 C   0  0  0  0  0  0  0  0  0  0  0  0
   15.6740    3.8400  -12.4140 O   0  0  0  0  0  0  0  0  0  0  0  0
   17.6250    1.2030   -8.1870 N   0  0  0  0  0  0  0  0  0  0  0  0
   17.8370    2.4320   -7.0760 S   0  0  0  0  0  0  0  0  0  0  0  0
   17.4650    1.8980   -5.7880 O   0  0  0  0  0  0  0  0  0  0  0  0
   19.0630    3.1680   -7.2710 O   0  0  0  0  0  0  0  0  0  0  0  0
   16.5240    3.4670   -7.5700 C   0  0  0  0  0  0  0  0  0  0  0  0
   17.5110    2.3740  -11.8510 C   0  0  0  0  0  0  0  0  0  0  0  0
   17.1510    2.1520  -10.5340 C   0  0  0  0  0  0  0  0  0  0  0  0
   18.0700    1.4180   -9.5690 C   0  0  0  0  0  0  0  0  0  0  0  0
   19.2850    0.9840  -10.0610 C   0  0  0  0  0  0  0  0  0  0  0  0
   19.6830    1.2010  -11.4080 C   0  0  0  0  0  0  0  0  0  0  0  0
   18.7720    1.9000  -12.2850 C   0  0  0  0  0  0  0  0  0  0  0  0
  1  2  1  0
  2  3  1  0
  3  4  2  0
  6  5  1  0
  6  7  2  0
  6  8  2  0
  6  9  1  0
  3 10  1  0
 10 11  2  0
  5 12  1  0
 11 12  1  0
 12 13  2  0
 13 14  1  0
 10 15  1  0
 14 15  2  0
M  END
