x0478-x0305
     RDKit          3D

 15 15  0  0  0  0  0  0  0  0999 V2000
   16.0530    2.0110  -14.4280 C   0  0  0  0  0  0  0  0  0  0  0  0
   16.8150    2.8460  -13.9550 O   0  0  0  0  0  0  0  0  0  0  0  0
   16.5630    3.1250  -12.7820 C   0  0  0  0  0  0  0  0  0  0  0  0
   15.6800    3.8770  -12.4170 O   0  0  0  0  0  0  0  0  0  0  0  0
   17.6100    1.1920   -8.1820 N   0  0  0  0  0  0  0  0  0  0  0  0
   17.8420    2.4220   -7.0740 S   0  0  0  0  0  0  0  0  0  0  0  0
   17.4860    1.8970   -5.7760 O   0  0  0  0  0  0  0  0  0  0  0  0
   19.0720    3.1440   -7.2940 O   0  0  0  0  0  0  0  0  0  0  0  0
   16.5360    3.4700   -7.5510 C   0  0  0  0  0  0  0  0  0  0  0  0
   17.4990    2.3920  -11.8420 C   0  0  0  0  0  0  0  0  0  0  0  0
   17.1390    2.1590  -10.5250 C   0  0  0  0  0  0  0  0  0  0  0  0
   18.0550    1.4170   -9.5660 C   0  0  0  0  0  0  0  0  0  0  0  0
   19.2690    0.9850  -10.0590 C   0  0  0  0  0  0  0  0  0  0  0  0
   19.6680    1.2120  -11.4030 C   0  0  0  0  0  0  0  0  0  0  0  0
   18.7600    1.9210  -12.2770 C   0  0  0  0  0  0  0  0  0  0  0  0
  1  2  1  0
  2  3  1  0
  3  4  2  0
  6  5  1  0
  6  7  2  0
  6  8  2  0
  6  9  1  0
  3 10  1  0
 10 11  2  0
  5 12  1  0
 11 12  1  0
 12 13  2  0
 13 14  1  0
 10 15  1  0
 14 15  2  0
M  END
