x0478-x0991
     RDKit          3D

 15 15  0  0  0  0  0  0  0  0999 V2000
   16.0420    2.0020  -14.4340 C   0  0  0  0  0  0  0  0  0  0  0  0
   16.8140    2.8300  -13.9580 O   0  0  0  0  0  0  0  0  0  0  0  0
   16.5660    3.1140  -12.7850 C   0  0  0  0  0  0  0  0  0  0  0  0
   15.6870    3.8690  -12.4160 O   0  0  0  0  0  0  0  0  0  0  0  0
   17.6240    1.2010   -8.1810 N   0  0  0  0  0  0  0  0  0  0  0  0
   17.8380    2.4360   -7.0720 S   0  0  0  0  0  0  0  0  0  0  0  0
   17.4660    1.9110   -5.7800 O   0  0  0  0  0  0  0  0  0  0  0  0
   19.0600    3.1740   -7.2770 O   0  0  0  0  0  0  0  0  0  0  0  0
   16.5290    3.4690   -7.5730 C   0  0  0  0  0  0  0  0  0  0  0  0
   17.5070    2.3850  -11.8480 C   0  0  0  0  0  0  0  0  0  0  0  0
   17.1520    2.1570  -10.5270 C   0  0  0  0  0  0  0  0  0  0  0  0
   18.0650    1.4190   -9.5640 C   0  0  0  0  0  0  0  0  0  0  0  0
   19.2790    0.9840  -10.0560 C   0  0  0  0  0  0  0  0  0  0  0  0
   19.6750    1.2050  -11.4030 C   0  0  0  0  0  0  0  0  0  0  0  0
   18.7680    1.9100  -12.2810 C   0  0  0  0  0  0  0  0  0  0  0  0
  1  2  1  0
  2  3  1  0
  3  4  2  0
  6  5  1  0
  6  7  2  0
  6  8  2  0
  6  9  1  0
  3 10  1  0
 10 11  2  0
  5 12  1  0
 11 12  1  0
 12 13  2  0
 13 14  1  0
 10 15  1  0
 14 15  2  0
M  END
