x0499-x1412
     RDKit          3D

 17 18  0  0  0  0  0  0  0  0999 V2000
   25.8610    6.3600   13.6570 N   0  0  0  0  0  0  0  0  0  0  0  0
   25.7360    5.0120   13.4770 C   0  0  0  0  0  0  0  0  0  0  0  0
   25.9560    4.2310   14.3950 O   0  0  0  0  0  0  0  0  0  0  0  0
   24.2120    3.4190    8.1380 N   0  0  0  0  0  0  0  0  0  0  0  0
   23.0150    2.8100    7.7930 C   0  0  0  0  0  0  0  0  0  0  0  0
   22.1660    2.4600    8.6000 O   0  0  0  0  0  0  0  0  0  0  0  0
   25.3270    4.5250   12.1110 C   0  0  0  0  0  0  0  0  0  0  0  0
   24.9350    3.0960   11.8830 C   0  0  0  0  0  0  0  0  0  0  0  0
   24.5530    2.7540   10.4750 C   0  0  0  0  0  0  0  0  0  0  0  0
   24.5750    3.7220    9.4670 C   0  0  0  0  0  0  0  0  0  0  0  0
   24.9550    5.0440    9.7400 C   0  0  0  0  0  0  0  0  0  0  0  0
   25.3220    5.4390   11.0410 C   0  0  0  0  0  0  0  0  0  0  0  0
   23.1420    1.2720    5.9300 C   0  0  0  0  0  0  0  0  0  0  0  0
   22.8390    2.6020    6.2670 C   0  0  2  0  0  0  0  0  0  0  0  0
   23.7020    3.4080    5.4790 O   0  0  0  0  0  0  0  0  0  0  0  0
   24.4030    2.4770    4.6720 C   0  0  0  0  0  0  0  0  0  0  0  0
   23.6230    1.3190    4.6980 C   0  0  0  0  0  0  0  0  0  0  0  0
  1  2  1  0
  2  3  2  0
  4  5  1  0
  5  6  2  0
  2  7  1  0
  7  8  2  0
  8  9  1  0
  4 10  1  0
  9 10  2  0
 10 11  1  0
  7 12  1  0
 11 12  2  0
 14  5  1  1
 13 14  1  0
 14 15  1  0
 15 16  1  0
 13 17  1  0
 16 17  1  0
M  END
