x0499-x1249
     RDKit          3D

 17 18  0  0  0  0  0  0  0  0999 V2000
   25.9450    6.3390   13.7850 N   0  0  0  0  0  0  0  0  0  0  0  0
   25.7680    5.0010   13.5970 C   0  0  0  0  0  0  0  0  0  0  0  0
   25.9710    4.2000   14.4970 O   0  0  0  0  0  0  0  0  0  0  0  0
   24.1190    3.6410    8.2770 N   0  0  0  0  0  0  0  0  0  0  0  0
   23.1940    2.7190    7.8370 C   0  0  0  0  0  0  0  0  0  0  0  0
   22.1590    2.3970    8.4010 O   0  0  0  0  0  0  0  0  0  0  0  0
   25.3220    4.5550   12.2360 C   0  0  0  0  0  0  0  0  0  0  0  0
   24.9000    3.1400   11.9680 C   0  0  0  0  0  0  0  0  0  0  0  0
   24.4840    2.8550   10.5620 C   0  0  0  0  0  0  0  0  0  0  0  0
   24.5040    3.8630    9.5980 C   0  0  0  0  0  0  0  0  0  0  0  0
   24.9130    5.1660    9.9110 C   0  0  0  0  0  0  0  0  0  0  0  0
   25.3110    5.5050   11.2060 C   0  0  0  0  0  0  0  0  0  0  0  0
   22.7050    1.5340    5.7250 C   0  0  0  0  0  0  0  0  0  0  0  0
   23.6810    2.1380    6.5030 C   0  0  1  0  0  0  0  0  0  0  0  0
   24.2050    3.1230    5.6430 O   0  0  0  0  0  0  0  0  0  0  0  0
   24.0470    2.5230    4.3760 C   0  0  0  0  0  0  0  0  0  0  0  0
   23.3940    1.3000    4.6200 C   0  0  0  0  0  0  0  0  0  0  0  0
  1  2  1  0
  2  3  2  0
  4  5  1  0
  5  6  2  0
  2  7  1  0
  7  8  2  0
  8  9  1  0
  4 10  1  0
  9 10  2  0
 10 11  1  0
  7 12  1  0
 11 12  2  0
 14  5  1  1
 13 14  1  0
 14 15  1  0
 15 16  1  0
 13 17  1  0
 16 17  1  0
M  END
