x0499-x0305
     RDKit          3D

 17 18  0  0  0  0  0  0  0  0999 V2000
   25.8050    6.3570   13.6800 N   0  0  0  0  0  0  0  0  0  0  0  0
   25.7260    5.0090   13.4710 C   0  0  0  0  0  0  0  0  0  0  0  0
   25.9990    4.2190   14.3650 O   0  0  0  0  0  0  0  0  0  0  0  0
   24.1300    3.4420    8.1370 N   0  0  0  0  0  0  0  0  0  0  0  0
   22.9440    2.8050    7.7860 C   0  0  0  0  0  0  0  0  0  0  0  0
   22.0850    2.4690    8.5870 O   0  0  0  0  0  0  0  0  0  0  0  0
   25.3030    4.5330   12.1080 C   0  0  0  0  0  0  0  0  0  0  0  0
   24.9980    3.0850   11.8490 C   0  0  0  0  0  0  0  0  0  0  0  0
   24.5930    2.7480   10.4470 C   0  0  0  0  0  0  0  0  0  0  0  0
   24.5150    3.7350    9.4630 C   0  0  0  0  0  0  0  0  0  0  0  0
   24.8190    5.0720    9.7660 C   0  0  0  0  0  0  0  0  0  0  0  0
   25.2010    5.4650   11.0600 C   0  0  0  0  0  0  0  0  0  0  0  0
   23.1320    1.2240    5.9430 C   0  0  0  0  0  0  0  0  0  0  0  0
   22.8000    2.5520    6.2610 C   0  0  2  0  0  0  0  0  0  0  0  0
   23.6680    3.3500    5.4710 O   0  0  0  0  0  0  0  0  0  0  0  0
   24.3280    2.4190    4.6310 C   0  0  0  0  0  0  0  0  0  0  0  0
   23.5500    1.2630    4.6900 C   0  0  0  0  0  0  0  0  0  0  0  0
  1  2  1  0
  2  3  2  0
  4  5  1  0
  5  6  2  0
  2  7  1  0
  7  8  2  0
  8  9  1  0
  4 10  1  0
  9 10  2  0
 10 11  1  0
  7 12  1  0
 11 12  2  0
 14  5  1  1
 13 14  1  0
 14 15  1  0
 15 16  1  0
 13 17  1  0
 16 17  1  0
M  END
