x0499-x1402
     RDKit          3D

 18 19  0  0  0  0  0  0  0  0999 V2000
    7.0720   -3.1030   20.7270 C   0  0  0  0  0  0  0  0  0  0  0  0
    5.5140   -4.7810   19.9260 O   0  0  0  0  0  0  0  0  0  0  0  0
    0.8160   -1.2730   26.1460 Cl  0  0  0  0  0  0  0  0  0  0  0  0
    6.3200   -4.4100   20.7830 C   0  0  0  0  0  0  0  0  0  0  0  0
    4.0220   -6.4780   25.9190 O   0  0  0  0  0  0  0  0  0  0  0  0
    6.0090   -5.2900   26.8740 O   0  0  0  0  0  0  0  0  0  0  0  0
    4.9500   -5.3770   25.9010 S   0  0  0  0  0  0  0  0  0  0  0  0
    6.6180   -5.2050   21.8810 N   0  0  0  0  0  0  0  0  0  0  0  0
    7.3570   -4.6270   22.9830 C   0  0  0  0  0  0  0  0  0  0  0  0
    6.4180   -4.2430   24.0720 C   0  0  0  0  0  0  0  0  0  0  0  0
    5.6390   -5.3300   24.3650 N   0  0  0  0  0  0  0  0  0  0  0  0
    4.8450   -5.7560   23.3280 C   0  0  0  0  0  0  0  0  0  0  0  0
    5.6670   -6.2470   22.2870 C   0  0  0  0  0  0  0  0  0  0  0  0
    2.3200   -3.8470   25.9880 S   0  0  0  0  0  0  0  0  0  0  0  0
    4.0380   -3.8720   25.9620 C   0  0  0  0  0  0  0  0  0  0  0  0
    4.5690   -2.5860   25.9990 C   0  0  0  0  0  0  0  0  0  0  0  0
    3.5980   -1.5990   26.0540 C   0  0  0  0  0  0  0  0  0  0  0  0
    2.3000   -2.1220   26.0640 C   0  0  0  0  0  0  0  0  0  0  0  0
  1  4  1  0
  2  4  2  0
  5  7  2  0
  6  7  2  0
  4  8  1  0
  8  9  1  0
  9 10  1  0
  7 11  1  0
 10 11  1  0
 11 12  1  0
  8 13  1  0
 12 13  1  0
  7 15  1  0
 14 15  1  0
 15 16  2  0
 16 17  1  0
  3 18  1  0
 14 18  1  0
 17 18  2  0
M  END
