x0499-x0165
     RDKit          3D

 17 18  0  0  0  0  0  0  0  0999 V2000
   25.9440    6.3380   13.7860 N   0  0  0  0  0  0  0  0  0  0  0  0
   25.7640    4.9960   13.5950 C   0  0  0  0  0  0  0  0  0  0  0  0
   25.9670    4.1950   14.4970 O   0  0  0  0  0  0  0  0  0  0  0  0
   24.1200    3.6430    8.2760 N   0  0  0  0  0  0  0  0  0  0  0  0
   23.1970    2.7200    7.8310 C   0  0  0  0  0  0  0  0  0  0  0  0
   22.1620    2.3910    8.3940 O   0  0  0  0  0  0  0  0  0  0  0  0
   25.3200    4.5530   12.2370 C   0  0  0  0  0  0  0  0  0  0  0  0
   24.8960    3.1350   11.9670 C   0  0  0  0  0  0  0  0  0  0  0  0
   24.4810    2.8570   10.5580 C   0  0  0  0  0  0  0  0  0  0  0  0
   24.5030    3.8630    9.5980 C   0  0  0  0  0  0  0  0  0  0  0  0
   24.9120    5.1650    9.9080 C   0  0  0  0  0  0  0  0  0  0  0  0
   25.3100    5.5040   11.2040 C   0  0  0  0  0  0  0  0  0  0  0  0
   22.7270    1.5040    5.7270 C   0  0  0  0  0  0  0  0  0  0  0  0
   23.6900    2.1420    6.5020 C   0  0  1  0  0  0  0  0  0  0  0  0
   24.1810    3.1340    5.6280 O   0  0  0  0  0  0  0  0  0  0  0  0
   24.0520    2.5100    4.3720 C   0  0  0  0  0  0  0  0  0  0  0  0
   23.4220    1.2810    4.6230 C   0  0  0  0  0  0  0  0  0  0  0  0
  1  2  1  0
  2  3  2  0
  4  5  1  0
  5  6  2  0
  2  7  1  0
  7  8  2  0
  8  9  1  0
  4 10  1  0
  9 10  2  0
 10 11  1  0
  7 12  1  0
 11 12  2  0
 14  5  1  1
 13 14  1  0
 14 15  1  0
 15 16  1  0
 13 17  1  0
 16 17  1  0
M  END
