x0499-x1334
     RDKit          3D

 17 18  0  0  0  0  0  0  0  0999 V2000
   25.8490    6.3630   13.6340 N   0  0  0  0  0  0  0  0  0  0  0  0
   25.7280    5.0120   13.4620 C   0  0  0  0  0  0  0  0  0  0  0  0
   25.9620    4.2390   14.3800 O   0  0  0  0  0  0  0  0  0  0  0  0
   24.1700    3.4340    8.1360 N   0  0  0  0  0  0  0  0  0  0  0  0
   22.9850    2.8030    7.7830 C   0  0  0  0  0  0  0  0  0  0  0  0
   22.1330    2.4510    8.5860 O   0  0  0  0  0  0  0  0  0  0  0  0
   25.3100    4.5220   12.1050 C   0  0  0  0  0  0  0  0  0  0  0  0
   24.9130    3.0940   11.8730 C   0  0  0  0  0  0  0  0  0  0  0  0
   24.5230    2.7600   10.4670 C   0  0  0  0  0  0  0  0  0  0  0  0
   24.5390    3.7310    9.4620 C   0  0  0  0  0  0  0  0  0  0  0  0
   24.9230    5.0520    9.7430 C   0  0  0  0  0  0  0  0  0  0  0  0
   25.2980    5.4370   11.0400 C   0  0  0  0  0  0  0  0  0  0  0  0
   23.1740    1.2560    5.9280 C   0  0  0  0  0  0  0  0  0  0  0  0
   22.8220    2.5760    6.2580 C   0  0  2  0  0  0  0  0  0  0  0  0
   23.6670    3.4000    5.4680 O   0  0  0  0  0  0  0  0  0  0  0  0
   24.3810    2.4840    4.6560 C   0  0  0  0  0  0  0  0  0  0  0  0
   23.6260    1.3100    4.6880 C   0  0  0  0  0  0  0  0  0  0  0  0
  1  2  1  0
  2  3  2  0
  4  5  1  0
  5  6  2  0
  2  7  1  0
  7  8  2  0
  8  9  1  0
  4 10  1  0
  9 10  2  0
 10 11  1  0
  7 12  1  0
 11 12  2  0
 14  5  1  1
 13 14  1  0
 14 15  1  0
 15 16  1  0
 13 17  1  0
 16 17  1  0
M  END
