x0499-x0770
     RDKit          3D

 17 18  0  0  0  0  0  0  0  0999 V2000
   25.9370    6.3360   13.7920 N   0  0  0  0  0  0  0  0  0  0  0  0
   25.7740    4.9930   13.6040 C   0  0  0  0  0  0  0  0  0  0  0  0
   25.9890    4.1940   14.5020 O   0  0  0  0  0  0  0  0  0  0  0  0
   24.1200    3.6350    8.2900 N   0  0  0  0  0  0  0  0  0  0  0  0
   23.1950    2.7140    7.8350 C   0  0  0  0  0  0  0  0  0  0  0  0
   22.1520    2.3910    8.3890 O   0  0  0  0  0  0  0  0  0  0  0  0
   25.3310    4.5510   12.2460 C   0  0  0  0  0  0  0  0  0  0  0  0
   24.9090    3.1350   11.9790 C   0  0  0  0  0  0  0  0  0  0  0  0
   24.4880    2.8460   10.5760 C   0  0  0  0  0  0  0  0  0  0  0  0
   24.5040    3.8530    9.6100 C   0  0  0  0  0  0  0  0  0  0  0  0
   24.9130    5.1580    9.9150 C   0  0  0  0  0  0  0  0  0  0  0  0
   25.3150    5.4960   11.2090 C   0  0  0  0  0  0  0  0  0  0  0  0
   22.7290    1.5040    5.7250 C   0  0  0  0  0  0  0  0  0  0  0  0
   23.6920    2.1350    6.5030 C   0  0  1  0  0  0  0  0  0  0  0  0
   24.1960    3.1270    5.6300 O   0  0  0  0  0  0  0  0  0  0  0  0
   24.0510    2.5090    4.3690 C   0  0  0  0  0  0  0  0  0  0  0  0
   23.4280    1.2760    4.6260 C   0  0  0  0  0  0  0  0  0  0  0  0
  1  2  1  0
  2  3  2  0
  4  5  1  0
  5  6  2  0
  2  7  1  0
  7  8  2  0
  8  9  1  0
  4 10  1  0
  9 10  2  0
 10 11  1  0
  7 12  1  0
 11 12  2  0
 14  5  1  1
 13 14  1  0
 14 15  1  0
 15 16  1  0
 13 17  1  0
 16 17  1  0
M  END
