x0499-x1478
     RDKit          3D

 17 18  0  0  0  0  0  0  0  0999 V2000
   25.8600    6.3590   13.6530 N   0  0  0  0  0  0  0  0  0  0  0  0
   25.7380    5.0100   13.4720 C   0  0  0  0  0  0  0  0  0  0  0  0
   25.9580    4.2290   14.3890 O   0  0  0  0  0  0  0  0  0  0  0  0
   24.2050    3.4130    8.1400 N   0  0  0  0  0  0  0  0  0  0  0  0
   23.0070    2.8080    7.7870 C   0  0  0  0  0  0  0  0  0  0  0  0
   22.1530    2.4580    8.5900 O   0  0  0  0  0  0  0  0  0  0  0  0
   25.3270    4.5240   12.1110 C   0  0  0  0  0  0  0  0  0  0  0  0
   24.9280    3.0950   11.8820 C   0  0  0  0  0  0  0  0  0  0  0  0
   24.5460    2.7510   10.4760 C   0  0  0  0  0  0  0  0  0  0  0  0
   24.5700    3.7160    9.4650 C   0  0  0  0  0  0  0  0  0  0  0  0
   24.9560    5.0390    9.7390 C   0  0  0  0  0  0  0  0  0  0  0  0
   25.3240    5.4340   11.0370 C   0  0  0  0  0  0  0  0  0  0  0  0
   23.1310    1.2720    5.9230 C   0  0  0  0  0  0  0  0  0  0  0  0
   22.8350    2.6030    6.2610 C   0  0  2  0  0  0  0  0  0  0  0  0
   23.7020    3.4060    5.4750 O   0  0  0  0  0  0  0  0  0  0  0  0
   24.4100    2.4710    4.6800 C   0  0  0  0  0  0  0  0  0  0  0  0
   23.6220    1.3160    4.6960 C   0  0  0  0  0  0  0  0  0  0  0  0
  1  2  1  0
  2  3  2  0
  4  5  1  0
  5  6  2  0
  2  7  1  0
  7  8  2  0
  8  9  1  0
  4 10  1  0
  9 10  2  0
 10 11  1  0
  7 12  1  0
 11 12  2  0
 14  5  1  1
 13 14  1  0
 14 15  1  0
 15 16  1  0
 13 17  1  0
 16 17  1  0
M  END
