x0499-x0981
     RDKit          3D

 15 14  0  0  0  0  0  0  0  0999 V2000
    1.1920   -8.7240   21.3240 C   0  0  0  0  0  0  0  0  0  0  0  0
    2.5750   -7.2720   22.7110 N   0  0  0  0  0  0  0  0  0  0  0  0
    0.4430   -6.6250   22.2000 O   0  0  0  0  0  0  0  0  0  0  0  0
    1.3500   -7.4510   22.1150 C   0  0  0  0  0  0  0  0  0  0  0  0
    2.3990   -8.3920   26.2170 N   0  0  0  0  0  0  0  0  0  0  0  0
    4.0320   -8.2020   24.6780 O   0  0  0  0  0  0  0  0  0  0  0  0
    2.8800   -6.0670   23.4800 C   0  0  1  0  0  0  0  0  0  0  0  0
    5.1180   -6.2530   22.3590 N   0  0  0  0  0  0  0  0  0  0  0  0
    4.7460   -4.5300   23.8150 O   0  0  0  0  0  0  0  0  0  0  0  0
    2.6680   -6.3100   24.9500 C   0  0  0  0  0  0  0  0  0  0  0  0
    3.0940   -7.7070   25.2590 C   0  0  0  0  0  0  0  0  0  0  0  0
    4.3240   -5.5380   23.2480 C   0  0  0  0  0  0  0  0  0  0  0  0
    6.4880   -5.8400   22.1430 C   0  0  0  0  0  0  0  0  0  0  0  0
    6.4050   -4.7220   21.3230 C   0  0  0  0  0  0  0  0  0  0  0  0
    5.6520   -4.7880   20.1670 C   0  0  0  0  0  0  0  0  0  0  0  0
  1  4  1  0
  2  4  1  0
  3  4  2  0
  2  7  1  0
  7 10  1  1
  5 11  1  0
  6 11  2  0
 10 11  1  0
  7 12  1  0
  8 12  1  0
  9 12  2  0
  8 13  1  0
 13 14  1  0
 14 15  2  3
M  END
