x0540-x0425
     RDKit          3D

 18 19  0  0  0  0  0  0  0  0999 V2000
    2.8220    1.4910   24.4080 O   0  0  0  0  0  0  0  0  0  0  0  0
    2.9140    2.3300   23.5140 C   0  0  0  0  0  0  0  0  0  0  0  0
    4.0280    2.5080   22.7180 N   0  0  0  0  0  0  0  0  0  0  0  0
    5.0200    1.4500   22.5940 C   0  0  0  0  0  0  0  0  0  0  0  0
    4.5580    0.3080   21.6820 C   0  0  0  0  0  0  0  0  0  0  0  0
    1.9260    3.2260   23.1660 N   0  0  0  0  0  0  0  0  0  0  0  0
    6.2540   -0.3600   19.9830 C   0  0  0  0  0  0  0  0  0  0  0  0
    6.7880   -0.2670   18.7210 C   0  0  0  0  0  0  0  0  0  0  0  0
    6.2950    0.5350   17.7590 N   0  0  0  0  0  0  0  0  0  0  0  0
    5.2140    1.2790   18.0630 C   0  0  0  0  0  0  0  0  0  0  0  0
    4.5880    1.2620   19.3110 C   0  0  0  0  0  0  0  0  0  0  0  0
    5.1320    0.4190   20.2930 C   0  0  0  0  0  0  0  0  0  0  0  0
    0.5710    4.7550   24.5120 C   0  0  0  0  0  0  0  0  0  0  0  0
   -0.7830    5.0000   25.1820 C   0  0  0  0  0  0  0  0  0  0  0  0
   -1.9750    4.6660   24.2870 C   0  0  0  0  0  0  0  0  0  0  0  0
   -1.8850    3.2480   23.7430 C   0  0  0  0  0  0  0  0  0  0  0  0
   -0.5380    2.9820   23.0710 C   0  0  0  0  0  0  0  0  0  0  0  0
    0.6890    3.3400   23.9330 C   0  0  0  0  0  0  0  0  0  0  0  0
  1  2  2  0
  2  3  1  0
  3  4  1  0
  4  5  1  0
  2  6  1  0
  7  8  2  0
  8  9  1  0
  9 10  2  0
 10 11  1  0
  5 12  1  0
  7 12  1  0
 11 12  2  0
 13 14  1  0
 14 15  1  0
 15 16  1  0
 16 17  1  0
  6 18  1  0
 13 18  1  0
 17 18  1  0
M  END
