x0540-x0771
     RDKit          3D

 40 43  0  0  0  0  0  0  0  0999 V2000
    0.7800   -1.0710   26.4770 C   0  0  0  0  0  0  0  0  0  0  0  0
    4.3880   -6.9570   25.8580 O   0  0  0  0  0  0  0  0  0  0  0  0
    6.0780   -5.3790   26.8420 O   0  0  0  0  0  0  0  0  0  0  0  0
    5.5260   -4.4340   19.8640 O   0  0  0  0  0  0  0  0  0  0  0  0
    1.8400   -6.1820   25.7950 C   0  0  0  0  0  0  0  0  0  0  0  0
    6.3040   -4.1370   20.7800 C   0  0  0  0  0  0  0  0  0  0  0  0
    6.8400   -2.7170   20.9140 C   0  0  0  0  0  0  0  0  0  0  0  0
    5.0650   -5.6830   25.8610 S   0  0  0  0  0  0  0  0  0  0  0  0
    2.7960    1.0580   24.0830 N   0  0  0  0  0  0  0  0  0  0  0  0
    2.8160    2.1710   23.4330 C   0  0  0  0  0  0  0  0  0  0  0  0
    4.0550    2.5790   23.0190 N   0  0  0  0  0  0  0  0  0  0  0  0
    5.0420    1.5520   22.6400 C   0  0  0  0  0  0  0  0  0  0  0  0
    4.4540    0.5980   21.7900 C   0  0  0  0  0  0  0  0  0  0  0  0
    1.7950    2.9940   23.0800 N   0  0  0  0  0  0  0  0  0  0  0  0
    1.4060    0.2740   26.0690 C   0  0  0  0  0  0  0  0  0  0  0  0
    1.5680    0.4260   24.5570 C   0  0  0  0  0  0  0  0  0  0  0  0
    1.7700   -2.1900   26.3410 C   0  0  0  0  0  0  0  0  0  0  0  0
    1.3190   -3.6480   26.1530 C   0  0  0  0  0  0  0  0  0  0  0  0
    2.3440   -4.7740   25.9940 C   0  0  0  0  0  0  0  0  0  0  0  0
    3.8280   -4.4250   26.0380 C   0  0  0  0  0  0  0  0  0  0  0  0
    4.2450   -2.9760   26.2350 C   0  0  0  0  0  0  0  0  0  0  0  0
    3.2600   -1.8710   26.3830 C   0  0  0  0  0  0  0  0  0  0  0  0
    6.7530   -5.0240   21.7250 N   0  0  0  0  0  0  0  0  0  0  0  0
    5.9310   -6.2080   21.9660 C   0  0  0  0  0  0  0  0  0  0  0  0
    5.0360   -6.0880   23.1960 C   0  0  0  0  0  0  0  0  0  0  0  0
    5.7370   -5.4250   24.3240 N   0  0  0  0  0  0  0  0  0  0  0  0
    6.4700   -4.1900   24.0150 C   0  0  0  0  0  0  0  0  0  0  0  0
    7.4530   -4.5350   22.9150 C   0  0  0  0  0  0  0  0  0  0  0  0
    6.3200   -0.2040   20.1090 C   0  0  0  0  0  0  0  0  0  0  0  0
    6.8270   -0.1510   18.7680 C   0  0  0  0  0  0  0  0  0  0  0  0
    6.2580    0.5630   17.7840 N   0  0  0  0  0  0  0  0  0  0  0  0
    5.1430    1.2680   18.0720 C   0  0  0  0  0  0  0  0  0  0  0  0
    4.5240    1.3080   19.3470 C   0  0  0  0  0  0  0  0  0  0  0  0
    5.0700    0.5870   20.4150 C   0  0  0  0  0  0  0  0  0  0  0  0
    0.5220    4.6820   24.3560 C   0  0  0  0  0  0  0  0  0  0  0  0
   -0.6720    4.9140   25.0470 C   0  0  0  0  0  0  0  0  0  0  0  0
   -1.7820    4.5310   24.3140 C   0  0  0  0  0  0  0  0  0  0  0  0
   -1.7750    3.3250   23.6210 C   0  0  0  0  0  0  0  0  0  0  0  0
   -0.5470    2.8340   23.2050 C   0  0  0  0  0  0  0  0  0  0  0  0
    0.6000    3.2100   23.9150 C   0  0  0  0  0  0  0  0  0  0  0  0
  4  6  2  0
  6  7  1  0
  2  8  2  0
  3  8  2  0
  9 10  2  3
 10 11  1  0
 11 12  1  0
 12 13  1  0
 10 14  1  0
  1 15  1  0
  9 16  1  0
 15 16  1  0
  1 17  1  0
 17 18  2  0
  5 19  1  0
 18 19  1  0
  8 20  1  0
 19 20  2  0
 20 21  1  0
 17 22  1  0
 21 22  2  0
  6 23  1  0
 23 24  1  0
 24 25  1  0
  8 26  1  0
 25 26  1  0
 26 27  1  0
 23 28  1  0
 27 28  1  0
 29 30  2  0
 30 31  1  0
 31 32  2  0
 32 33  1  0
 13 34  1  0
 29 34  1  0
 33 34  2  0
 35 36  1  0
 36 37  1  0
 37 38  1  0
 38 39  1  0
 14 40  1  0
 35 40  1  0
 39 40  1  0
M  END
