x0540-x0669
     RDKit          3D

 18 19  0  0  0  0  0  0  0  0999 V2000
    2.8310    1.4980   24.4020 O   0  0  0  0  0  0  0  0  0  0  0  0
    2.9160    2.3310   23.5010 C   0  0  0  0  0  0  0  0  0  0  0  0
    4.0160    2.4950   22.6860 N   0  0  0  0  0  0  0  0  0  0  0  0
    5.0140    1.4430   22.5760 C   0  0  0  0  0  0  0  0  0  0  0  0
    4.5590    0.2920   21.6760 C   0  0  0  0  0  0  0  0  0  0  0  0
    1.9280    3.2290   23.1610 N   0  0  0  0  0  0  0  0  0  0  0  0
    6.2520   -0.3600   19.9780 C   0  0  0  0  0  0  0  0  0  0  0  0
    6.7840   -0.2560   18.7200 C   0  0  0  0  0  0  0  0  0  0  0  0
    6.2870    0.5450   17.7620 N   0  0  0  0  0  0  0  0  0  0  0  0
    5.1990    1.2820   18.0680 C   0  0  0  0  0  0  0  0  0  0  0  0
    4.5750    1.2570   19.3150 C   0  0  0  0  0  0  0  0  0  0  0  0
    5.1270    0.4100   20.2900 C   0  0  0  0  0  0  0  0  0  0  0  0
    0.5730    4.7420   24.5170 C   0  0  0  0  0  0  0  0  0  0  0  0
   -0.7790    4.9870   25.1880 C   0  0  0  0  0  0  0  0  0  0  0  0
   -1.9700    4.6590   24.2890 C   0  0  0  0  0  0  0  0  0  0  0  0
   -1.8820    3.2430   23.7430 C   0  0  0  0  0  0  0  0  0  0  0  0
   -0.5370    2.9770   23.0700 C   0  0  0  0  0  0  0  0  0  0  0  0
    0.6930    3.3340   23.9300 C   0  0  0  0  0  0  0  0  0  0  0  0
  1  2  2  0
  2  3  1  0
  3  4  1  0
  4  5  1  0
  2  6  1  0
  7  8  2  0
  8  9  1  0
  9 10  2  0
 10 11  1  0
  5 12  1  0
  7 12  1  0
 11 12  2  0
 13 14  1  0
 14 15  1  0
 15 16  1  0
 16 17  1  0
  6 18  1  0
 13 18  1  0
 17 18  1  0
M  END
