x0540-x0434
     RDKit          3D

 28 30  0  0  0  0  0  0  0  0999 V2000
    2.8260    1.5050   24.4040 O   0  0  0  0  0  0  0  0  0  0  0  0
    2.9040    2.3600   23.5230 C   0  0  0  0  0  0  0  0  0  0  0  0
    4.0220    2.5920   22.7520 N   0  0  0  0  0  0  0  0  0  0  0  0
    5.0580    1.5790   22.6230 C   0  0  0  0  0  0  0  0  0  0  0  0
    4.6080    0.3910   21.7740 C   0  0  0  0  0  0  0  0  0  0  0  0
    1.8920    3.2230   23.1620 N   0  0  0  0  0  0  0  0  0  0  0  0
    8.5180    0.8910   21.2670 O   0  0  0  0  0  0  0  0  0  0  0  0
    8.2100   -0.2800   21.4560 C   0  0  0  0  0  0  0  0  0  0  0  0
    8.9670   -1.1380   22.2060 N   0  0  0  0  0  0  0  0  0  0  0  0
    7.0780   -0.8470   20.9250 N   0  0  0  0  0  0  0  0  0  0  0  0
    6.4050   -0.2280   20.0420 C   0  0  0  0  0  0  0  0  0  0  0  0
    6.8390   -0.1440   18.7330 C   0  0  0  0  0  0  0  0  0  0  0  0
    6.1870    0.5240   17.7370 N   0  0  0  0  0  0  0  0  0  0  0  0
    5.0400    1.1610   18.0040 C   0  0  0  0  0  0  0  0  0  0  0  0
    4.4970    1.1410   19.2720 C   0  0  0  0  0  0  0  0  0  0  0  0
    5.2000    0.4050   20.3910 C   0  0  0  0  0  0  0  0  0  0  0  0
    0.5330    4.7740   24.4640 C   0  0  0  0  0  0  0  0  0  0  0  0
   -0.7730    4.9530   25.2390 C   0  0  0  0  0  0  0  0  0  0  0  0
   -1.9580    4.7110   24.3180 C   0  0  0  0  0  0  0  0  0  0  0  0
   -1.8840    3.2920   23.7590 C   0  0  0  0  0  0  0  0  0  0  0  0
   -0.5470    2.9800   23.0670 C   0  0  0  0  0  0  0  0  0  0  0  0
    0.6520    3.3420   23.9240 C   0  0  0  0  0  0  0  0  0  0  0  0
   10.4050    0.4220   23.3890 C   0  0  0  0  0  0  0  0  0  0  0  0
   11.7620    0.9400   23.7730 C   0  0  0  0  0  0  0  0  0  0  0  0
   12.9690    0.2060   23.2630 C   0  0  0  0  0  0  0  0  0  0  0  0
   12.7810   -1.0130   22.4090 C   0  0  0  0  0  0  0  0  0  0  0  0
   11.3690   -1.4600   22.0720 C   0  0  0  0  0  0  0  0  0  0  0  0
   10.2340   -0.7070   22.5790 C   0  0  0  0  0  0  0  0  0  0  0  0
  1  2  2  0
  2  3  1  0
  3  4  1  0
  4  5  1  0
  2  6  1  0
  7  8  2  0
  8  9  1  0
  8 10  1  0
 10 11  1  0
 11 12  2  0
 12 13  1  0
 13 14  2  0
 14 15  1  0
  5 16  1  0
 11 16  1  0
 15 16  2  0
 17 18  1  0
 18 19  1  0
 19 20  1  0
 20 21  1  0
  6 22  1  0
 17 22  1  0
 21 22  1  0
 23 24  2  0
 24 25  1  0
 25 26  2  0
 26 27  1  0
  9 28  1  0
 23 28  1  0
 27 28  2  0
M  END
