x0540-x0350
     RDKit          3D

 18 19  0  0  0  0  0  0  0  0999 V2000
    2.8620    1.4850   24.3380 O   0  0  0  0  0  0  0  0  0  0  0  0
    2.9260    2.3270   23.4430 C   0  0  0  0  0  0  0  0  0  0  0  0
    4.0180    2.5170   22.6210 N   0  0  0  0  0  0  0  0  0  0  0  0
    5.0810    1.5230   22.5520 C   0  0  0  0  0  0  0  0  0  0  0  0
    4.6870    0.2980   21.7230 C   0  0  0  0  0  0  0  0  0  0  0  0
    1.9200    3.2140   23.1200 N   0  0  0  0  0  0  0  0  0  0  0  0
    6.2860   -0.3570   19.9270 C   0  0  0  0  0  0  0  0  0  0  0  0
    6.7420   -0.2570   18.6400 C   0  0  0  0  0  0  0  0  0  0  0  0
    6.1860    0.5450   17.7110 N   0  0  0  0  0  0  0  0  0  0  0  0
    5.1230    1.2880   18.0820 C   0  0  0  0  0  0  0  0  0  0  0  0
    4.5750    1.2630   19.3650 C   0  0  0  0  0  0  0  0  0  0  0  0
    5.1800    0.4150   20.3060 C   0  0  0  0  0  0  0  0  0  0  0  0
    0.5810    4.7310   24.4910 C   0  0  0  0  0  0  0  0  0  0  0  0
   -0.7700    4.9840   25.1640 C   0  0  0  0  0  0  0  0  0  0  0  0
   -1.9620    4.6580   24.2690 C   0  0  0  0  0  0  0  0  0  0  0  0
   -1.8870    3.2350   23.7410 C   0  0  0  0  0  0  0  0  0  0  0  0
   -0.5430    2.9400   23.0700 C   0  0  0  0  0  0  0  0  0  0  0  0
    0.6970    3.3180   23.9110 C   0  0  0  0  0  0  0  0  0  0  0  0
  1  2  2  0
  2  3  1  0
  3  4  1  0
  4  5  1  0
  2  6  1  0
  7  8  2  0
  8  9  1  0
  9 10  2  0
 10 11  1  0
  5 12  1  0
  7 12  1  0
 11 12  2  0
 13 14  1  0
 14 15  1  0
 15 16  1  0
 16 17  1  0
  6 18  1  0
 13 18  1  0
 17 18  1  0
M  END
