x0540-x0705
     RDKit          3D

 38 43  0  0  0  0  0  0  0  0999 V2000
    2.8340    1.5240   24.2070 O   0  0  0  0  0  0  0  0  0  0  0  0
    2.9080    2.4260   23.3880 C   0  0  0  0  0  0  0  0  0  0  0  0
    4.0370    2.7460   22.6690 N   0  0  0  0  0  0  0  0  0  0  0  0
    5.1380    1.8040   22.5990 C   0  0  0  0  0  0  0  0  0  0  0  0
    4.7050    0.4890   21.9650 C   0  0  2  0  0  0  0  0  0  0  0  0
    1.8750    3.2660   23.0560 N   0  0  0  0  0  0  0  0  0  0  0  0
    1.2570   -2.6270   27.7260 C   0  0  0  0  0  0  0  0  0  0  0  0
    7.4390   -1.2860   26.0220 O   0  0  0  0  0  0  0  0  0  0  0  0
    5.8620   -4.3330   19.9280 O   0  0  0  0  0  0  0  0  0  0  0  0
    6.5340   -1.8330   25.4090 C   0  0  0  0  0  0  0  0  0  0  0  0
    6.5930   -3.4820   20.4610 C   0  0  0  0  0  0  0  0  0  0  0  0
    6.7960   -2.2550   19.8460 C   0  0  0  0  0  0  0  0  0  0  0  0
    4.9380   -0.6320   22.9670 C   0  0  0  0  0  0  0  0  0  0  0  0
    6.0080   -1.7280   22.8180 C   0  0  1  0  0  0  0  0  0  0  0  0
    6.4300   -0.1740   20.2040 C   0  0  0  0  0  0  0  0  0  0  0  0
    6.9100   -0.1160   18.7660 C   0  0  0  0  0  0  0  0  0  0  0  0
    6.3200    0.5330   17.7520 N   0  0  0  0  0  0  0  0  0  0  0  0
    5.1830    1.1900   18.0380 C   0  0  0  0  0  0  0  0  0  0  0  0
    4.5350    1.2440   19.4230 C   0  0  0  0  0  0  0  0  0  0  0  0
    5.2640    0.4840   20.5500 C   0  0  0  0  0  0  0  0  0  0  0  0
    0.5220    4.7550   24.4390 C   0  0  0  0  0  0  0  0  0  0  0  0
   -0.8070    4.9870   25.1550 C   0  0  0  0  0  0  0  0  0  0  0  0
   -1.9920    4.6280   24.2690 C   0  0  0  0  0  0  0  0  0  0  0  0
   -1.8940    3.1890   23.7730 C   0  0  0  0  0  0  0  0  0  0  0  0
   -0.5740    2.9280   23.0450 C   0  0  0  0  0  0  0  0  0  0  0  0
    0.6620    3.3410   23.8630 C   0  0  0  0  0  0  0  0  0  0  0  0
    2.6220   -2.4290   27.1390 C   0  0  0  0  0  0  0  0  0  0  0  0
    2.8250   -1.4710   26.1010 C   0  0  0  0  0  0  0  0  0  0  0  0
    4.1230   -1.3020   25.5590 C   0  0  0  0  0  0  0  0  0  0  0  0
    5.1970   -2.0620   26.0320 C   0  0  0  0  0  0  0  0  0  0  0  0
    5.0020   -2.9960   27.0430 C   0  0  0  0  0  0  0  0  0  0  0  0
    3.7280   -3.1780   27.5910 C   0  0  0  0  0  0  0  0  0  0  0  0
    7.2370   -3.6760   21.6700 N   0  0  0  0  0  0  0  0  0  0  0  0
    6.3290   -4.1810   22.6850 C   0  0  0  0  0  0  0  0  0  0  0  0
    5.8080   -3.1080   23.3880 C   0  0  1  0  0  0  0  0  0  0  0  0
    6.7050   -2.2890   24.0280 C   0  0  2  0  0  0  0  0  0  0  0  0
    7.5050   -1.7250   23.0360 C   0  0  1  0  0  0  0  0  0  0  0  0
    8.2330   -2.6950   22.1680 C   0  0  0  0  0  0  0  0  0  0  0  0
  1  2  2  0
  2  3  1  0
  3  4  1  0
  5  4  1  1
  2  6  1  0
  8 10  2  0
  9 11  2  0
 11 12  1  0
  5 13  1  0
 14 13  1  1
 15 16  2  0
 16 17  1  0
 17 18  2  0
 18 19  1  0
  5 20  1  0
 15 20  1  0
 19 20  2  0
 21 22  1  0
 22 23  1  0
 23 24  1  0
 24 25  1  0
  6 26  1  0
 21 26  1  0
 25 26  1  0
  7 27  1  0
 27 28  2  0
 28 29  1  0
 10 30  1  0
 29 30  2  0
 30 31  1  0
 27 32  1  0
 31 32  2  0
 11 33  1  0
 33 34  1  0
 14 35  1  0
 35 34  1  6
 36 10  1  1
 14 36  1  0
 35 36  1  0
 14 37  1  0
 36 37  1  0
 33 38  1  0
 37 38  1  6
M  END
