x0540-x0177
     RDKit          3D

 18 19  0  0  0  0  0  0  0  0999 V2000
    2.8350    1.4870   24.4070 O   0  0  0  0  0  0  0  0  0  0  0  0
    2.9270    2.3190   23.5070 C   0  0  0  0  0  0  0  0  0  0  0  0
    4.0300    2.4740   22.6940 N   0  0  0  0  0  0  0  0  0  0  0  0
    5.0170    1.4100   22.5770 C   0  0  0  0  0  0  0  0  0  0  0  0
    4.5560    0.2740   21.6600 C   0  0  0  0  0  0  0  0  0  0  0  0
    1.9460    3.2280   23.1690 N   0  0  0  0  0  0  0  0  0  0  0  0
    6.2620   -0.3460   19.9510 C   0  0  0  0  0  0  0  0  0  0  0  0
    6.7860   -0.2280   18.6900 C   0  0  0  0  0  0  0  0  0  0  0  0
    6.2720    0.5690   17.7380 N   0  0  0  0  0  0  0  0  0  0  0  0
    5.1750    1.2870   18.0510 C   0  0  0  0  0  0  0  0  0  0  0  0
    4.5560    1.2440   19.3010 C   0  0  0  0  0  0  0  0  0  0  0  0
    5.1240    0.4030   20.2720 C   0  0  0  0  0  0  0  0  0  0  0  0
    0.5700    4.7480   24.5010 C   0  0  0  0  0  0  0  0  0  0  0  0
   -0.7870    4.9850   25.1660 C   0  0  0  0  0  0  0  0  0  0  0  0
   -1.9720    4.6340   24.2690 C   0  0  0  0  0  0  0  0  0  0  0  0
   -1.8690    3.2170   23.7330 C   0  0  0  0  0  0  0  0  0  0  0  0
   -0.5170    2.9550   23.0700 C   0  0  0  0  0  0  0  0  0  0  0  0
    0.7060    3.3340   23.9310 C   0  0  0  0  0  0  0  0  0  0  0  0
  1  2  2  0
  2  3  1  0
  3  4  1  0
  4  5  1  0
  2  6  1  0
  7  8  2  0
  8  9  1  0
  9 10  2  0
 10 11  1  0
  5 12  1  0
  7 12  1  0
 11 12  2  0
 13 14  1  0
 14 15  1  0
 15 16  1  0
 16 17  1  0
  6 18  1  0
 13 18  1  0
 17 18  1  0
M  END
