x0540-x1249
     RDKit          3D

 34 40  0  0  0  0  0  0  0  0999 V2000
    3.1000    2.5080   23.5110 C   0  0  1  0  0  0  0  0  0  0  0  0
    4.1590    2.3400   22.6020 N   0  0  0  0  0  0  0  0  0  0  0  0
    5.0050    0.3270   21.9260 C   0  0  2  0  0  0  0  0  0  0  0  0
    2.0380    3.0950   22.8310 N   0  0  0  0  0  0  0  0  0  0  0  0
    8.0990    0.6210   24.8180 N   0  0  0  0  0  0  0  0  0  0  0  0
    7.3870    1.5690   24.1130 C   0  0  0  0  0  0  0  0  0  0  0  0
    7.9540    2.5300   23.5950 O   0  0  0  0  0  0  0  0  0  0  0  0
    9.3690    0.9080   25.2210 C   0  0  0  0  0  0  0  0  0  0  0  0
   13.5990   -2.1620   20.7710 N   0  0  0  0  0  0  0  0  0  0  0  0
   12.9510   -1.5580   21.6440 C   0  0  0  0  0  0  0  0  0  0  0  0
    6.3500   -0.3970   19.9580 C   0  0  0  0  0  0  0  0  0  0  0  0
    6.6910   -0.3330   18.6110 C   0  0  0  0  0  0  0  0  0  0  0  0
    6.1210    0.4750   17.6850 N   0  0  0  0  0  0  0  0  0  0  0  0
    5.1340    1.3050   18.0640 C   0  0  0  0  0  0  0  0  0  0  0  0
    4.6450    1.3530   19.5010 C   0  0  0  0  0  0  0  0  0  0  0  0
    5.3420    0.4140   20.4670 C   0  0  0  0  0  0  0  0  0  0  0  0
    0.8690    4.3460   24.7120 C   0  0  0  0  0  0  0  0  0  0  0  0
   -0.4910    4.8590   25.1980 C   0  0  0  0  0  0  0  0  0  0  0  0
   -1.6050    4.5820   24.1770 C   0  0  0  0  0  0  0  0  0  0  0  0
   -1.6940    3.1060   23.7420 C   0  0  0  0  0  0  0  0  0  0  0  0
   -0.3420    2.5340   23.3680 C   0  0  0  0  0  0  0  0  0  0  0  0
    0.7560    3.5950   23.3760 C   0  0  0  0  0  0  0  0  0  0  0  0
    3.0980    1.0520   23.7430 N   0  0  0  0  0  0  0  0  0  0  0  0
    3.8420    0.9500   22.5360 C   0  0  2  0  0  0  0  0  0  0  0  0
    5.2830    1.4520   22.8160 C   0  0  1  0  0  0  0  0  0  0  0  0
    6.0090    1.3610   24.0290 N   0  0  0  0  0  0  0  0  0  0  0  0
    5.2820    0.8960   25.1940 C   0  0  0  0  0  0  0  0  0  0  0  0
    3.8060    0.5320   24.9310 C   0  0  0  0  0  0  0  0  0  0  0  0
   11.5090    1.0280   23.8840 C   0  0  0  0  0  0  0  0  0  0  0  0
   12.4430    0.4290   22.9810 C   0  0  0  0  0  0  0  0  0  0  0  0
   12.1280   -0.8830   22.5440 C   0  0  0  0  0  0  0  0  0  0  0  0
   10.9970   -1.5640   22.9630 C   0  0  0  0  0  0  0  0  0  0  0  0
   10.1200   -0.9740   23.8310 C   0  0  0  0  0  0  0  0  0  0  0  0
   10.3660    0.3040   24.2840 C   0  0  0  0  0  0  0  0  0  0  0  0
  1  2  1  0
  1  4  1  6
  5  6  1  0
  6  7  2  0
  5  8  1  0
  9 10  3  0
 11 12  2  0
 12 13  1  0
 13 14  2  0
 14 15  1  0
  3 16  1  6
 11 16  1  0
 15 16  2  0
 17 18  1  0
 18 19  1  0
 19 20  1  0
 20 21  1  0
  4 22  1  0
 17 22  1  0
 21 22  1  0
  1 23  1  0
 24  2  1  1
  3 24  1  0
 23 24  1  0
  2 25  1  0
  3 25  1  0
 24 25  1  0
  6 26  1  0
 25 26  1  1
 26 27  1  0
 23 28  1  0
 27 28  1  0
 29 30  2  0
 10 31  1  0
 30 31  1  0
 31 32  2  0
 32 33  1  0
  8 34  1  0
 29 34  1  0
 33 34  2  0
M  END
