x0540-x0161
     RDKit          3D

 14 14  0  0  0  0  0  0  0  0999 V2000
   13.3250   -2.2600   24.3730 C   0  0  0  0  0  0  0  0  0  0  0  0
   12.8380   -0.9110   24.4030 O   0  0  0  0  0  0  0  0  0  0  0  0
   12.9440   -0.2930   23.3400 C   0  0  0  0  0  0  0  0  0  0  0  0
   13.5400   -0.6720   22.3520 O   0  0  0  0  0  0  0  0  0  0  0  0
    9.9820    5.0950   23.7220 S   0  0  0  0  0  0  0  0  0  0  0  0
   10.8830    6.1400   23.2750 O   0  0  0  0  0  0  0  0  0  0  0  0
    9.2780    5.1900   24.9920 O   0  0  0  0  0  0  0  0  0  0  0  0
    8.7750    4.9730   22.5740 N   0  0  0  0  0  0  0  0  0  0  0  0
   12.2220    1.0630   23.4040 C   0  0  0  0  0  0  0  0  0  0  0  0
   12.8460    2.3570   22.9350 C   0  0  0  0  0  0  0  0  0  0  0  0
   12.0860    3.5000   23.0630 C   0  0  0  0  0  0  0  0  0  0  0  0
   10.8080    3.5240   23.5930 C   0  0  0  0  0  0  0  0  0  0  0  0
   10.1610    2.3430   24.0400 C   0  0  0  0  0  0  0  0  0  0  0  0
   10.8390    1.1100   23.9600 C   0  0  0  0  0  0  0  0  0  0  0  0
  1  2  1  0
  2  3  1  0
  3  4  2  0
  5  6  2  0
  5  7  2  0
  5  8  1  0
  3  9  1  0
  9 10  2  0
 10 11  1  0
  5 12  1  0
 11 12  2  0
 12 13  1  0
  9 14  1  0
 13 14  2  0
M  END
