x0540-x0398
     RDKit          3D

 18 19  0  0  0  0  0  0  0  0999 V2000
    2.8290    1.4950   24.4070 O   0  0  0  0  0  0  0  0  0  0  0  0
    2.9220    2.3330   23.5120 C   0  0  0  0  0  0  0  0  0  0  0  0
    4.0330    2.5050   22.7130 N   0  0  0  0  0  0  0  0  0  0  0  0
    5.0170    1.4400   22.5900 C   0  0  0  0  0  0  0  0  0  0  0  0
    4.5390    0.3050   21.6790 C   0  0  0  0  0  0  0  0  0  0  0  0
    1.9330    3.2270   23.1620 N   0  0  0  0  0  0  0  0  0  0  0  0
    6.2500   -0.3580   19.9890 C   0  0  0  0  0  0  0  0  0  0  0  0
    6.7850   -0.2580   18.7310 C   0  0  0  0  0  0  0  0  0  0  0  0
    6.2900    0.5420   17.7680 N   0  0  0  0  0  0  0  0  0  0  0  0
    5.2020    1.2810   18.0710 C   0  0  0  0  0  0  0  0  0  0  0  0
    4.5750    1.2550   19.3160 C   0  0  0  0  0  0  0  0  0  0  0  0
    5.1200    0.4130   20.2970 C   0  0  0  0  0  0  0  0  0  0  0  0
    0.5760    4.7510   24.5090 C   0  0  0  0  0  0  0  0  0  0  0  0
   -0.7790    4.9950   25.1800 C   0  0  0  0  0  0  0  0  0  0  0  0
   -1.9700    4.6600   24.2840 C   0  0  0  0  0  0  0  0  0  0  0  0
   -1.8790    3.2440   23.7400 C   0  0  0  0  0  0  0  0  0  0  0  0
   -0.5320    2.9780   23.0660 C   0  0  0  0  0  0  0  0  0  0  0  0
    0.6960    3.3390   23.9290 C   0  0  0  0  0  0  0  0  0  0  0  0
  1  2  2  0
  2  3  1  0
  3  4  1  0
  4  5  1  0
  2  6  1  0
  7  8  2  0
  8  9  1  0
  9 10  2  0
 10 11  1  0
  5 12  1  0
  7 12  1  0
 11 12  2  0
 13 14  1  0
 14 15  1  0
 15 16  1  0
 16 17  1  0
  6 18  1  0
 13 18  1  0
 17 18  1  0
M  END
