x0669-x1334
     RDKit          3D

 16 17  0  0  0  0  0  0  0  0999 V2000
    6.3810   -1.9970   18.7770 C   0  0  0  0  0  0  0  0  0  0  0  0
    5.4680   -4.0650   19.6110 O   0  0  0  0  0  0  0  0  0  0  0  0
    7.3510   -5.7060   28.3710 Cl  0  0  0  0  0  0  0  0  0  0  0  0
    6.0610   -3.0030   19.8560 C   0  0  0  0  0  0  0  0  0  0  0  0
    9.6360   -2.9800   24.1040 C   0  0  0  0  0  0  0  0  0  0  0  0
    6.5430   -2.6040   21.1770 N   0  0  0  0  0  0  0  0  0  0  0  0
    7.7120   -1.6760   21.1350 C   0  0  0  0  0  0  0  0  0  0  0  0
    8.9230   -2.1290   21.9750 C   0  0  0  0  0  0  0  0  0  0  0  0
    8.5400   -2.6370   23.3220 N   0  0  0  0  0  0  0  0  0  0  0  0
    7.6280   -3.6910   23.1910 C   0  0  0  0  0  0  0  0  0  0  0  0
    6.4370   -3.4570   22.2870 C   0  0  0  0  0  0  0  0  0  0  0  0
    9.8990   -5.2480   25.3630 C   0  0  0  0  0  0  0  0  0  0  0  0
    9.3040   -4.0120   25.1540 C   0  0  0  0  0  0  0  0  0  0  0  0
    8.0480   -3.7450   26.2970 S   0  0  0  0  0  0  0  0  0  0  0  0
    8.3140   -5.2400   27.0350 C   0  0  0  0  0  0  0  0  0  0  0  0
    9.3350   -5.9660   26.4460 C   0  0  0  0  0  0  0  0  0  0  0  0
  1  4  1  0
  2  4  2  0
  4  6  1  0
  6  7  1  0
  7  8  1  0
  5  9  1  0
  8  9  1  0
  9 10  1  0
  6 11  1  0
 10 11  1  0
  5 13  1  0
 12 13  2  0
 13 14  1  0
  3 15  1  0
 14 15  1  0
 12 16  1  0
 15 16  2  0
M  END
