x0669-x0395
     RDKit          3D

 14 15  0  0  0  0  0  0  0  0999 V2000
    9.4390   -5.2580   26.5610 C   0  0  0  0  0  0  0  0  0  0  0  0
    8.9580   -1.2040   23.0030 C   0  0  0  0  0  0  0  0  0  0  0  0
   13.4820   -1.6840   21.6990 F   0  0  0  0  0  0  0  0  0  0  0  0
    9.0980   -4.0180   25.7190 C   0  0  0  0  0  0  0  0  0  0  0  0
    7.9780   -3.1550   26.1420 N   0  0  0  0  0  0  0  0  0  0  0  0
    7.8390   -2.1100   25.2500 N   0  0  0  0  0  0  0  0  0  0  0  0
    8.8370   -2.1900   24.1670 C   0  0  0  0  0  0  0  0  0  0  0  0
    9.9070   -3.5270   24.3010 S   0  0  0  0  0  0  0  0  0  0  0  0
   10.7930    0.2150   23.9810 C   0  0  0  0  0  0  0  0  0  0  0  0
   11.7840    1.1960   23.3930 C   0  0  0  0  0  0  0  0  0  0  0  0
   12.8230    0.3080   22.7490 C   0  0  0  0  0  0  0  0  0  0  0  0
   12.5210   -0.9690   22.2680 C   0  0  0  0  0  0  0  0  0  0  0  0
   11.2370   -1.5240   22.3520 C   0  0  0  0  0  0  0  0  0  0  0  0
   10.2140   -0.6070   22.9300 N   0  0  0  0  0  0  0  0  0  0  0  0
  1  4  1  0
  4  5  2  0
  5  6  1  0
  2  7  1  0
  6  7  2  0
  4  8  1  0
  7  8  1  0
  9 10  1  0
 10 11  1  0
  3 12  1  0
 11 12  2  0
 12 13  1  0
  2 14  1  0
  9 14  1  0
 13 14  1  0
M  END
