x0669-x1375
     RDKit          3D

 18 19  0  0  0  0  0  0  0  0999 V2000
    5.7090   -4.7620   20.1040 O   0  0  0  0  0  0  0  0  0  0  0  0
    6.1990   -4.0270   20.9830 C   0  0  0  0  0  0  0  0  0  0  0  0
    7.0460   -2.8400   20.5750 C   0  0  0  0  0  0  0  0  0  0  0  0
    5.9980   -4.2140   22.3620 N   0  0  0  0  0  0  0  0  0  0  0  0
    2.2510   -6.8840   23.8080 O   0  0  0  0  0  0  0  0  0  0  0  0
    4.3990   -7.7790   25.0370 O   0  0  0  0  0  0  0  0  0  0  0  0
   10.1980   -5.3160   25.8730 F   0  0  0  0  0  0  0  0  0  0  0  0
    7.4740   -3.4680   24.1660 C   0  0  0  0  0  0  0  0  0  0  0  0
    8.5050   -3.6980   25.0610 C   0  0  0  0  0  0  0  0  0  0  0  0
    9.2480   -5.0260   25.0510 C   0  0  0  0  0  0  0  0  0  0  0  0
    8.8540   -6.0500   24.0350 C   0  0  0  0  0  0  0  0  0  0  0  0
    7.7160   -5.6770   23.1310 C   0  0  0  0  0  0  0  0  0  0  0  0
    7.0930   -4.4460   23.2400 C   0  0  0  0  0  0  0  0  0  0  0  0
    4.5020   -4.2790   24.1310 C   0  0  0  0  0  0  0  0  0  0  0  0
    4.7730   -4.8350   22.8840 C   0  0  2  0  0  0  0  0  0  0  0  0
    4.7430   -6.2320   22.8260 C   0  0  0  0  0  0  0  0  0  0  0  0
    3.7520   -6.5750   24.2470 S   0  0  0  0  0  0  0  0  0  0  0  0
    3.9330   -5.1050   25.0220 C   0  0  0  0  0  0  0  0  0  0  0  0
  1  2  2  0
  2  3  1  0
  2  4  1  0
  8  9  2  0
  7 10  1  0
  9 10  1  0
 10 11  2  0
 11 12  1  0
  4 13  1  0
  8 13  1  0
 12 13  2  0
 15  4  1  1
 14 15  1  0
 15 16  1  0
 17  5  1  0
  6 17  1  0
 16 17  1  0
 14 18  2  0
 17 18  1  0
M  END
