x0669-x1311
     RDKit          3D

 17 18  0  0  0  0  0  0  0  0999 V2000
    5.3320   -4.5960   19.8760 O   0  0  0  0  0  0  0  0  0  0  0  0
    5.7860   -4.0600   20.8840 C   0  0  0  0  0  0  0  0  0  0  0  0
    6.2970   -2.6490   20.7610 C   0  0  0  0  0  0  0  0  0  0  0  0
    5.8830   -4.6700   22.1460 N   0  0  0  0  0  0  0  0  0  0  0  0
    4.1250   -6.9310   26.0610 O   0  0  0  0  0  0  0  0  0  0  0  0
    2.1740   -5.5510   24.8660 O   0  0  0  0  0  0  0  0  0  0  0  0
    7.8550   -5.8120   23.0020 C   0  0  0  0  0  0  0  0  0  0  0  0
    9.1130   -5.7590   23.5440 C   0  0  0  0  0  0  0  0  0  0  0  0
    9.7640   -4.4070   23.8380 C   0  0  0  0  0  0  0  0  0  0  0  0
    9.0210   -3.1450   23.5830 C   0  0  0  0  0  0  0  0  0  0  0  0
    7.6630   -3.3650   23.0020 C   0  0  0  0  0  0  0  0  0  0  0  0
    7.1630   -4.6330   22.7340 C   0  0  0  0  0  0  0  0  0  0  0  0
    4.4290   -6.3900   22.5200 C   0  0  0  0  0  0  0  0  0  0  0  0
    4.7120   -5.0920   22.9080 C   0  0  1  0  0  0  0  0  0  0  0  0
    4.8070   -4.9370   24.2850 C   0  0  0  0  0  0  0  0  0  0  0  0
    3.6290   -6.1770   24.7500 S   0  0  0  0  0  0  0  0  0  0  0  0
    3.7790   -7.1290   23.4290 C   0  0  0  0  0  0  0  0  0  0  0  0
  1  2  2  0
  2  3  1  0
  2  4  1  0
  7  8  2  0
  8  9  1  0
  9 10  2  0
 10 11  1  0
  4 12  1  0
  7 12  1  0
 11 12  2  0
 14  4  1  6
 13 14  1  0
 14 15  1  0
 16  5  1  0
  6 16  1  0
 15 16  1  0
 13 17  2  0
 16 17  1  0
M  END
