x0669-x0887
     RDKit          3D

 14 15  0  0  0  0  0  0  0  0999 V2000
   21.9900   -7.7060    5.7950 Cl  0  0  0  0  0  0  0  0  0  0  0  0
   26.4480  -10.4330    4.9740 C   0  0  0  0  0  0  0  0  0  0  0  0
   23.6940   -7.7820    5.7950 C   0  0  0  0  0  0  0  0  0  0  0  0
   24.3730   -9.0770    5.3780 C   0  0  0  0  0  0  0  0  0  0  0  0
   25.7630   -9.1640    5.3790 C   0  0  0  0  0  0  0  0  0  0  0  0
   26.5920   -7.9510    5.7950 C   0  0  0  0  0  0  0  0  0  0  0  0
   25.9300   -6.6450    6.2150 C   0  0  0  0  0  0  0  0  0  0  0  0
   24.3990   -6.6370    6.1900 C   0  0  0  0  0  0  0  0  0  0  0  0
   27.9550  -10.5680    6.9600 C   0  0  0  0  0  0  0  0  0  0  0  0
   28.0400  -11.2140    8.1960 C   0  0  0  0  0  0  0  0  0  0  0  0
   28.2730  -12.6160    8.0100 O   0  0  0  0  0  0  0  0  0  0  0  0
   27.2870  -13.2230    7.1680 C   0  0  0  0  0  0  0  0  0  0  0  0
   27.1970  -12.6280    5.9120 C   0  0  0  0  0  0  0  0  0  0  0  0
   26.9360  -11.1790    6.0710 N   0  0  0  0  0  0  0  0  0  0  0  0
  1  3  1  0
  3  4  2  0
  2  5  1  0
  4  5  1  0
  5  6  2  0
  6  7  1  0
  3  8  1  0
  7  8  2  0
  9 10  1  0
 10 11  1  0
 11 12  1  0
 12 13  1  0
  2 14  1  0
  9 14  1  0
 13 14  1  0
M  END
