x0678-x0995
     RDKit          3D

 17 18  0  0  0  0  0  0  0  0999 V2000
    9.1540    1.3910   21.3650 O   0  0  0  0  0  0  0  0  0  0  0  0
    8.6110    0.3900   21.8860 C   0  0  0  0  0  0  0  0  0  0  0  0
    9.2100   -0.2620   23.1220 C   0  0  0  0  0  0  0  0  0  0  0  0
    7.4440   -0.2060   21.4500 N   0  0  0  0  0  0  0  0  0  0  0  0
    3.4630    2.2320   19.1470 N   0  0  0  0  0  0  0  0  0  0  0  0
   11.0970   -1.4610   22.3500 C   0  0  0  0  0  0  0  0  0  0  0  0
   12.4810   -1.7740   22.4100 C   0  0  0  0  0  0  0  0  0  0  0  0
   13.2810   -1.1640   23.4000 C   0  0  0  0  0  0  0  0  0  0  0  0
   12.6590   -0.3550   24.3480 C   0  0  0  0  0  0  0  0  0  0  0  0
   11.3010   -0.3220   24.3560 C   0  0  0  0  0  0  0  0  0  0  0  0
   10.6980   -0.3710   23.1390 C   0  0  0  0  0  0  0  0  0  0  0  0
    5.4590    1.0160   20.5090 C   0  0  0  0  0  0  0  0  0  0  0  0
    4.6910    1.4550   19.2620 C   0  0  0  0  0  0  0  0  0  0  0  0
    5.3080    1.0120   17.9670 C   0  0  0  0  0  0  0  0  0  0  0  0
    6.4320    0.2810   17.8840 N   0  0  0  0  0  0  0  0  0  0  0  0
    7.0760   -0.0960   19.0000 C   0  0  0  0  0  0  0  0  0  0  0  0
    6.6190    0.2660   20.3650 C   0  0  0  0  0  0  0  0  0  0  0  0
  1  2  2  0
  2  3  1  0
  2  4  1  0
  6  7  1  0
  7  8  1  0
  8  9  1  0
  9 10  1  0
  3 11  1  0
  6 11  1  0
 10 11  1  0
  5 13  1  0
 12 13  2  0
 13 14  1  0
 14 15  2  0
 15 16  1  0
  4 17  1  0
 12 17  1  0
 16 17  2  0
M  END
