x0678-x1163
     RDKit          3D

 16 17  0  0  0  0  0  0  0  0999 V2000
    9.1960    1.5790   21.3440 O   0  0  0  0  0  0  0  0  0  0  0  0
    8.5840    0.3400   21.8030 C   0  0  0  0  0  0  0  0  0  0  0  0
    9.1640   -0.3080   23.0370 C   0  0  0  0  0  0  0  0  0  0  0  0
    7.5120   -0.3360   21.2610 N   0  0  0  0  0  0  0  0  0  0  0  0
   11.1550   -1.5190   22.2690 C   0  0  0  0  0  0  0  0  0  0  0  0
   12.5250   -1.8260   22.4340 C   0  0  0  0  0  0  0  0  0  0  0  0
   13.2820   -1.1820   23.5690 C   0  0  0  0  0  0  0  0  0  0  0  0
   12.5930   -0.4210   24.5140 C   0  0  0  0  0  0  0  0  0  0  0  0
   11.2340   -0.4640   24.4540 C   0  0  0  0  0  0  0  0  0  0  0  0
   10.6840   -0.4730   23.0600 C   0  0  0  0  0  0  0  0  0  0  0  0
    5.6830    0.9770   20.4710 C   0  0  0  0  0  0  0  0  0  0  0  0
    4.8640    1.5510   19.3450 C   0  0  0  0  0  0  0  0  0  0  0  0
    5.3090    1.1820   17.9620 C   0  0  0  0  0  0  0  0  0  0  0  0
    6.3690    0.3850   17.7700 N   0  0  0  0  0  0  0  0  0  0  0  0
    7.0590   -0.0980   18.8410 C   0  0  0  0  0  0  0  0  0  0  0  0
    6.7750    0.1610   20.1860 C   0  0  0  0  0  0  0  0  0  0  0  0
  1  2  2  0
  2  3  1  0
  2  4  1  0
  5  6  1  0
  6  7  1  0
  7  8  1  0
  8  9  1  0
  3 10  1  0
  5 10  1  0
  9 10  1  0
 11 12  2  0
 12 13  1  0
 13 14  2  0
 14 15  1  0
  4 16  1  0
 11 16  1  0
 15 16  2  0
M  END
