x0678-x0786
     RDKit          3D

 36 39  0  0  0  0  0  0  0  0999 V2000
    6.6700   -3.8470   21.7840 N   0  0  0  0  0  0  0  0  0  0  0  0
    6.1970   -2.6980   19.6750 C   0  0  0  0  0  0  0  0  0  0  0  0
    5.4320   -4.8690   20.0600 O   0  0  0  0  0  0  0  0  0  0  0  0
    6.0560   -3.9240   20.5330 C   0  0  0  0  0  0  0  0  0  0  0  0
    3.8220   -7.9820   24.7680 O   0  0  0  0  0  0  0  0  0  0  0  0
    3.3380   -6.9530   24.2980 C   0  0  0  0  0  0  0  0  0  0  0  0
    9.1240    1.4540   21.2490 O   0  0  0  0  0  0  0  0  0  0  0  0
    8.6940    0.4430   21.8280 C   0  0  0  0  0  0  0  0  0  0  0  0
    9.2210    0.1160   23.2090 C   0  0  0  0  0  0  0  0  0  0  0  0
    7.7110   -0.4220   21.2770 N   0  0  0  0  0  0  0  0  0  0  0  0
    7.6660   -2.7660   21.9360 C   0  0  0  0  0  0  0  0  0  0  0  0
    7.0770   -1.5060   22.0750 C   0  0  0  0  0  0  0  0  0  0  0  0
    5.9020   -4.1920   22.9570 C   0  0  0  0  0  0  0  0  0  0  0  0
    5.0270   -5.4430   22.9510 C   0  0  0  0  0  0  0  0  0  0  0  0
    4.2160   -5.7710   24.2080 C   0  0  0  0  0  0  0  0  0  0  0  0
    4.3330   -4.8240   25.4020 C   0  0  0  0  0  0  0  0  0  0  0  0
    5.2550   -3.6110   25.2610 C   0  0  0  0  0  0  0  0  0  0  0  0
    5.9660   -3.3660   24.0890 C   0  0  0  0  0  0  0  0  0  0  0  0
    1.5160   -5.5360   23.5470 C   0  0  0  0  0  0  0  0  0  0  0  0
    0.5570   -5.0480   24.4170 C   0  0  0  0  0  0  0  0  0  0  0  0
   -0.9210   -6.0950   24.4200 S   0  0  0  0  0  0  0  0  0  0  0  0
   -0.0550   -7.6610   24.7970 C   0  0  0  0  0  0  0  0  0  0  0  0
    1.0160   -7.9500   23.9360 C   0  0  0  0  0  0  0  0  0  0  0  0
    2.0140   -6.8720   23.8670 N   0  0  0  0  0  0  0  0  0  0  0  0
   11.2440   -1.0620   22.2040 C   0  0  0  0  0  0  0  0  0  0  0  0
   12.4970   -1.8490   22.5830 C   0  0  0  0  0  0  0  0  0  0  0  0
   13.2950   -1.0700   23.6040 C   0  0  0  0  0  0  0  0  0  0  0  0
   12.4560   -0.3190   24.5630 C   0  0  0  0  0  0  0  0  0  0  0  0
   11.0610   -0.9210   24.6830 C   0  0  0  0  0  0  0  0  0  0  0  0
   10.2830   -0.9880   23.3610 C   0  0  0  0  0  0  0  0  0  0  0  0
    5.8050    0.9710   20.4520 C   0  0  0  0  0  0  0  0  0  0  0  0
    5.0360    1.4790   19.4000 C   0  0  0  0  0  0  0  0  0  0  0  0
    5.3690    1.1220   18.1190 C   0  0  0  0  0  0  0  0  0  0  0  0
    6.3910    0.3100   17.8380 N   0  0  0  0  0  0  0  0  0  0  0  0
    7.1150   -0.1690   18.8740 C   0  0  0  0  0  0  0  0  0  0  0  0
    6.8890    0.1180   20.2140 C   0  0  0  0  0  0  0  0  0  0  0  0
  1  4  1  0
  2  4  1  0
  3  4  2  0
  5  6  2  0
  7  8  2  0
  8  9  1  0
  8 10  1  0
  1 11  1  0
 10 12  1  0
 11 12  1  0
  1 13  1  0
 13 14  2  0
  6 15  1  0
 14 15  1  0
 15 16  2  0
 16 17  1  0
 13 18  1  0
 17 18  2  0
 19 20  1  0
 20 21  1  0
 21 22  1  0
 22 23  1  0
  6 24  1  0
 19 24  1  0
 23 24  1  0
 25 26  1  0
 26 27  1  0
 27 28  1  0
 28 29  1  0
  9 30  1  0
 25 30  1  0
 29 30  1  0
 31 32  2  0
 32 33  1  0
 33 34  2  0
 34 35  1  0
 10 36  1  0
 31 36  1  0
 35 36  2  0
M  END
