x0678-x0165
     RDKit          3D

 16 17  0  0  0  0  0  0  0  0999 V2000
    9.2090    1.5660   21.3530 O   0  0  0  0  0  0  0  0  0  0  0  0
    8.5760    0.3400   21.8140 C   0  0  0  0  0  0  0  0  0  0  0  0
    9.1600   -0.3290   23.0350 C   0  0  0  0  0  0  0  0  0  0  0  0
    7.4840   -0.3080   21.2880 N   0  0  0  0  0  0  0  0  0  0  0  0
   11.1650   -1.5180   22.2660 C   0  0  0  0  0  0  0  0  0  0  0  0
   12.5360   -1.8160   22.4410 C   0  0  0  0  0  0  0  0  0  0  0  0
   13.2810   -1.1660   23.5830 C   0  0  0  0  0  0  0  0  0  0  0  0
   12.5760   -0.4090   24.5180 C   0  0  0  0  0  0  0  0  0  0  0  0
   11.2180   -0.4800   24.4530 C   0  0  0  0  0  0  0  0  0  0  0  0
   10.6780   -0.4780   23.0550 C   0  0  0  0  0  0  0  0  0  0  0  0
    5.6620    0.9900   20.4680 C   0  0  0  0  0  0  0  0  0  0  0  0
    4.8540    1.5510   19.3270 C   0  0  0  0  0  0  0  0  0  0  0  0
    5.3170    1.1720   17.9510 C   0  0  0  0  0  0  0  0  0  0  0  0
    6.3830    0.3770   17.7790 N   0  0  0  0  0  0  0  0  0  0  0  0
    7.0610   -0.0950   18.8630 C   0  0  0  0  0  0  0  0  0  0  0  0
    6.7580    0.1760   20.1990 C   0  0  0  0  0  0  0  0  0  0  0  0
  1  2  2  0
  2  3  1  0
  2  4  1  0
  5  6  1  0
  6  7  1  0
  7  8  1  0
  8  9  1  0
  3 10  1  0
  5 10  1  0
  9 10  1  0
 11 12  2  0
 12 13  1  0
 13 14  2  0
 14 15  1  0
  4 16  1  0
 11 16  1  0
 15 16  2  0
M  END
