x0678-x0104
     RDKit          3D

 26 28  0  0  0  0  0  0  0  0999 V2000
    8.9590    6.6380   22.6290 C   0  0  0  0  0  0  0  0  0  0  0  0
   10.2220    6.2070   23.3470 C   0  0  0  0  0  0  0  0  0  0  0  0
   10.2760    6.3670   24.5610 O   0  0  0  0  0  0  0  0  0  0  0  0
   11.2320    5.6580   22.6070 N   0  0  0  0  0  0  0  0  0  0  0  0
   12.5140    5.2920   23.2650 C   0  0  0  0  0  0  0  0  0  0  0  0
   12.8970    4.0140   22.7990 C   0  0  0  0  0  0  0  0  0  0  0  0
   13.7110   -1.7990   22.3740 F   0  0  0  0  0  0  0  0  0  0  0  0
    8.8920    0.8830   21.5310 O   0  0  0  0  0  0  0  0  0  0  0  0
    8.3540   -0.1400   21.9750 C   0  0  0  0  0  0  0  0  0  0  0  0
    8.9260   -0.8710   23.0280 C   0  0  0  0  0  0  0  0  0  0  0  0
    7.1720   -0.6090   21.4530 N   0  0  0  0  0  0  0  0  0  0  0  0
   11.9670    2.8830   22.9260 C   0  0  0  0  0  0  0  0  0  0  0  0
   10.5040    3.0940   23.1840 C   0  0  0  0  0  0  0  0  0  0  0  0
    9.7970    1.9520   23.2210 N   0  0  0  0  0  0  0  0  0  0  0  0
   10.6620    0.8960   23.0050 C   0  0  0  0  0  0  0  0  0  0  0  0
   12.0810    1.4340   22.8390 C   0  0  0  0  0  0  0  0  0  0  0  0
   10.3400   -0.4500   22.9300 C   0  0  0  0  0  0  0  0  0  0  0  0
   11.4890   -1.4130   22.7030 C   0  0  0  0  0  0  0  0  0  0  0  0
   12.7700   -0.9030   22.5760 C   0  0  0  0  0  0  0  0  0  0  0  0
   13.0940    0.4710   22.6370 C   0  0  0  0  0  0  0  0  0  0  0  0
    5.4620    0.7550   20.4630 C   0  0  0  0  0  0  0  0  0  0  0  0
    4.7720    1.4210   19.2530 C   0  0  0  0  0  0  0  0  0  0  0  0
    5.3980    1.1360   18.0300 C   0  0  0  0  0  0  0  0  0  0  0  0
    6.4880    0.3680   17.8410 N   0  0  0  0  0  0  0  0  0  0  0  0
    7.0850   -0.2150   18.8910 C   0  0  0  0  0  0  0  0  0  0  0  0
    6.5890   -0.0420   20.3120 C   0  0  0  0  0  0  0  0  0  0  0  0
  1  2  1  0
  2  3  2  0
  2  4  1  0
  4  5  1  0
  5  6  1  0
  8  9  2  0
  9 10  1  0
  9 11  1  0
  6 12  1  0
 12 13  2  0
 13 14  1  0
 14 15  1  0
 12 16  1  0
 15 16  2  0
 10 17  1  0
 15 17  1  0
 17 18  2  0
  7 19  1  0
 18 19  1  0
 16 20  1  0
 19 20  2  0
 21 22  2  0
 22 23  1  0
 23 24  2  0
 24 25  1  0
 11 26  1  0
 21 26  1  0
 25 26  2  0
M  END
