x0678-x0398
     RDKit          3D

 16 17  0  0  0  0  0  0  0  0999 V2000
    9.3030    1.6620   21.3430 O   0  0  0  0  0  0  0  0  0  0  0  0
    8.7060    0.4910   21.9510 C   0  0  0  0  0  0  0  0  0  0  0  0
    9.2590    0.0780   23.3040 C   0  0  0  0  0  0  0  0  0  0  0  0
    7.6590   -0.2580   21.4580 N   0  0  0  0  0  0  0  0  0  0  0  0
   10.9770   -1.3900   22.2400 C   0  0  0  0  0  0  0  0  0  0  0  0
   12.3720   -1.6440   22.3420 C   0  0  0  0  0  0  0  0  0  0  0  0
   13.1700   -0.8130   23.3140 C   0  0  0  0  0  0  0  0  0  0  0  0
   12.4930   -0.3200   24.4260 C   0  0  0  0  0  0  0  0  0  0  0  0
   11.2110   -0.7800   24.6310 C   0  0  0  0  0  0  0  0  0  0  0  0
   10.3300   -1.0300   23.4220 C   0  0  0  0  0  0  0  0  0  0  0  0
    5.8050    1.0120   20.6160 C   0  0  0  0  0  0  0  0  0  0  0  0
    4.9430    1.4920   19.4710 C   0  0  0  0  0  0  0  0  0  0  0  0
    5.3270    0.9850   18.1090 C   0  0  0  0  0  0  0  0  0  0  0  0
    6.3700    0.1580   17.9680 N   0  0  0  0  0  0  0  0  0  0  0  0
    7.0980   -0.2320   19.0520 C   0  0  0  0  0  0  0  0  0  0  0  0
    6.8760    0.1520   20.3730 C   0  0  0  0  0  0  0  0  0  0  0  0
  1  2  2  0
  2  3  1  0
  2  4  1  0
  5  6  1  0
  6  7  1  0
  7  8  1  0
  8  9  1  0
  3 10  1  0
  5 10  1  0
  9 10  1  0
 11 12  2  0
 12 13  1  0
 13 14  2  0
 14 15  1  0
  4 16  1  0
 11 16  1  0
 15 16  2  0
M  END
