x0691-x0165
     RDKit          3D

 19 20  0  0  0  0  0  0  0  0999 V2000
    3.9420   -7.0430   25.9820 O   0  0  0  0  0  0  0  0  0  0  0  0
    5.7560   -5.2120   26.7450 O   0  0  0  0  0  0  0  0  0  0  0  0
    5.5020   -4.5090   19.8630 O   0  0  0  0  0  0  0  0  0  0  0  0
    6.1920   -4.2710   20.8650 C   0  0  0  0  0  0  0  0  0  0  0  0
    6.8070   -2.8840   21.1020 C   0  0  0  0  0  0  0  0  0  0  0  0
    3.2140   -0.5360   25.9800 F   0  0  0  0  0  0  0  0  0  0  0  0
    4.7320   -5.6210   25.8110 S   0  0  0  0  0  0  0  0  0  0  0  0
    2.8840   -1.8330   25.9080 C   0  0  0  0  0  0  0  0  0  0  0  0
    3.9490   -2.8740   25.8900 C   0  0  0  0  0  0  0  0  0  0  0  0
    3.5150   -4.3280   25.8110 C   0  0  0  0  0  0  0  0  0  0  0  0
    2.1170   -4.6240   25.7500 C   0  0  0  0  0  0  0  0  0  0  0  0
    1.1610   -3.5660   25.7720 C   0  0  0  0  0  0  0  0  0  0  0  0
    1.5360   -2.2100   25.8540 C   0  0  0  0  0  0  0  0  0  0  0  0
    6.4830   -5.2140   21.8490 N   0  0  0  0  0  0  0  0  0  0  0  0
    5.6290   -6.3300   22.1020 C   0  0  0  0  0  0  0  0  0  0  0  0
    4.6850   -6.0260   23.0880 C   0  0  0  0  0  0  0  0  0  0  0  0
    5.4550   -5.5740   24.2990 N   0  0  0  0  0  0  0  0  0  0  0  0
    6.3300   -4.4010   24.0050 C   0  0  0  0  0  0  0  0  0  0  0  0
    7.2400   -4.8320   23.0500 C   0  0  0  0  0  0  0  0  0  0  0  0
  3  4  2  0
  4  5  1  0
  1  7  2  0
  2  7  2  0
  6  8  1  0
  8  9  2  0
  7 10  1  0
  9 10  1  0
 10 11  2  0
 11 12  1  0
  8 13  1  0
 12 13  2  0
  4 14  1  0
 14 15  1  0
 15 16  1  0
  7 17  1  0
 16 17  1  0
 17 18  1  0
 14 19  1  0
 18 19  1  0
M  END
