x0692-x0398
     RDKit          3D

 17 18  0  0  0  0  0  0  0  0999 V2000
   11.0030    2.4190   23.6910 C   0  0  0  0  0  0  0  0  0  0  0  0
    5.4330   -3.9990   19.7140 O   0  0  0  0  0  0  0  0  0  0  0  0
    9.4310   -2.2920   23.9390 C   0  0  0  0  0  0  0  0  0  0  0  0
    6.0180   -2.9040   19.8060 C   0  0  0  0  0  0  0  0  0  0  0  0
    6.3720   -2.1110   18.5780 C   0  0  0  0  0  0  0  0  0  0  0  0
   11.3150    0.9690   23.5540 C   0  0  0  0  0  0  0  0  0  0  0  0
   10.3120    0.0350   23.8020 C   0  0  0  0  0  0  0  0  0  0  0  0
   10.5540   -1.3300   23.6710 C   0  0  0  0  0  0  0  0  0  0  0  0
   11.8290   -1.7640   23.2880 C   0  0  0  0  0  0  0  0  0  0  0  0
   12.8540   -0.8380   23.0370 C   0  0  0  0  0  0  0  0  0  0  0  0
   12.5880    0.5290   23.1720 C   0  0  0  0  0  0  0  0  0  0  0  0
    6.4060   -2.3580   21.0020 N   0  0  0  0  0  0  0  0  0  0  0  0
    7.5010   -1.3670   20.9860 C   0  0  0  0  0  0  0  0  0  0  0  0
    8.6080   -1.8550   21.6740 C   0  0  0  0  0  0  0  0  0  0  0  0
    8.2590   -2.0780   23.0860 N   0  0  0  0  0  0  0  0  0  0  0  0
    7.1960   -3.0750   23.2540 C   0  0  0  0  0  0  0  0  0  0  0  0
    6.0150   -2.9030   22.3050 C   0  0  0  0  0  0  0  0  0  0  0  0
  2  4  2  0
  4  5  1  0
  1  6  1  0
  6  7  2  0
  3  8  1  0
  7  8  1  0
  8  9  2  0
  9 10  1  0
  6 11  1  0
 10 11  2  0
  4 12  1  0
 12 13  1  0
 13 14  1  0
  3 15  1  0
 14 15  1  0
 15 16  1  0
 12 17  1  0
 16 17  1  0
M  END
