x0692-x1163
     RDKit          3D

 17 18  0  0  0  0  0  0  0  0999 V2000
   10.9980    2.4170   23.6880 C   0  0  0  0  0  0  0  0  0  0  0  0
    5.4170   -3.9920   19.7060 O   0  0  0  0  0  0  0  0  0  0  0  0
    9.4330   -2.3050   23.9180 C   0  0  0  0  0  0  0  0  0  0  0  0
    6.0060   -2.9000   19.8020 C   0  0  0  0  0  0  0  0  0  0  0  0
    6.3440   -2.0940   18.5820 C   0  0  0  0  0  0  0  0  0  0  0  0
   11.3100    0.9640   23.5490 C   0  0  0  0  0  0  0  0  0  0  0  0
   10.3090    0.0280   23.7920 C   0  0  0  0  0  0  0  0  0  0  0  0
   10.5540   -1.3390   23.6560 C   0  0  0  0  0  0  0  0  0  0  0  0
   11.8270   -1.7690   23.2770 C   0  0  0  0  0  0  0  0  0  0  0  0
   12.8520   -0.8380   23.0320 C   0  0  0  0  0  0  0  0  0  0  0  0
   12.5840    0.5300   23.1710 C   0  0  0  0  0  0  0  0  0  0  0  0
    6.4170   -2.3730   20.9970 N   0  0  0  0  0  0  0  0  0  0  0  0
    7.5090   -1.3820   20.9700 C   0  0  0  0  0  0  0  0  0  0  0  0
    8.6140   -1.8600   21.6660 C   0  0  0  0  0  0  0  0  0  0  0  0
    8.2590   -2.0770   23.0800 N   0  0  0  0  0  0  0  0  0  0  0  0
    7.1960   -3.0760   23.2490 C   0  0  0  0  0  0  0  0  0  0  0  0
    6.0190   -2.9100   22.3000 C   0  0  0  0  0  0  0  0  0  0  0  0
  2  4  2  0
  4  5  1  0
  1  6  1  0
  6  7  2  0
  3  8  1  0
  7  8  1  0
  8  9  2  0
  9 10  1  0
  6 11  1  0
 10 11  2  0
  4 12  1  0
 12 13  1  0
 13 14  1  0
  3 15  1  0
 14 15  1  0
 15 16  1  0
 12 17  1  0
 16 17  1  0
M  END
