x0691-x0786
     RDKit          3D

 26 28  0  0  0  0  0  0  0  0999 V2000
    3.4330   -6.3940   24.9650 C   0  0  0  0  0  0  0  0  0  0  0  0
    5.1690   -6.2220   27.1810 O   0  0  0  0  0  0  0  0  0  0  0  0
    5.5370   -4.2640   19.8380 O   0  0  0  0  0  0  0  0  0  0  0  0
    6.3400   -3.9200   20.7220 C   0  0  0  0  0  0  0  0  0  0  0  0
    7.3250   -2.7690   20.5180 C   0  0  0  0  0  0  0  0  0  0  0  0
    3.6310   -0.3990   26.0020 F   0  0  0  0  0  0  0  0  0  0  0  0
    4.6650   -5.5500   25.7860 S   0  0  2  0  0  0  0  0  0  0  0  0
    2.5060   -6.5090   23.8300 C   0  0  0  0  0  0  0  0  0  0  0  0
    3.2330   -1.6720   25.9320 C   0  0  0  0  0  0  0  0  0  0  0  0
    4.2010   -2.7370   25.9070 C   0  0  0  0  0  0  0  0  0  0  0  0
    3.7100   -4.0600   25.8340 C   0  0  0  0  0  0  0  0  0  0  0  0
    2.3180   -4.2910   25.7890 C   0  0  0  0  0  0  0  0  0  0  0  0
    1.4020   -3.2570   25.8130 C   0  0  0  0  0  0  0  0  0  0  0  0
    1.8520   -1.9560   25.8870 C   0  0  0  0  0  0  0  0  0  0  0  0
    6.4100   -4.5270   21.9320 N   0  0  0  0  0  0  0  0  0  0  0  0
    5.4550   -5.6110   22.2210 C   0  0  0  0  0  0  0  0  0  0  0  0
    5.6930   -6.2140   23.4370 C   0  0  0  0  0  0  0  0  0  0  0  0
    5.7790   -5.2730   24.5810 N   0  0  0  0  0  0  0  0  0  0  0  0
    6.0790   -3.9030   24.1900 C   0  0  0  0  0  0  0  0  0  0  0  0
    6.9420   -3.8320   23.1090 C   0  0  0  0  0  0  0  0  0  0  0  0
    0.5330   -6.6430   22.7310 C   0  0  0  0  0  0  0  0  0  0  0  0
    0.0640   -5.5500   23.4430 C   0  0  0  0  0  0  0  0  0  0  0  0
   -1.0380   -6.1730   24.7330 S   0  0  0  0  0  0  0  0  0  0  0  0
    0.1460   -7.3410   25.5010 C   0  0  0  0  0  0  0  0  0  0  0  0
    0.8310   -8.1540   24.5760 C   0  0  0  0  0  0  0  0  0  0  0  0
    1.5250   -7.3730   23.5350 N   0  0  0  0  0  0  0  0  0  0  0  0
  3  4  2  0
  4  5  1  0
  1  7  2  0
  2  7  2  0
  1  8  2  0
  6  9  1  0
  9 10  2  0
  7 11  1  1
 10 11  1  0
 11 12  2  0
 12 13  1  0
  9 14  1  0
 13 14  2  0
  4 15  1  0
 15 16  1  0
 16 17  1  0
  7 18  1  0
 17 18  1  0
 18 19  1  0
 15 20  1  0
 19 20  1  0
 21 22  1  0
 22 23  1  0
 23 24  1  0
 24 25  1  0
  8 26  1  0
 21 26  1  0
 25 26  1  0
M  END
