x0691-x0161
     RDKit          3D

 19 20  0  0  0  0  0  0  0  0999 V2000
    3.9730   -7.0280   25.9490 O   0  0  0  0  0  0  0  0  0  0  0  0
    5.7720   -5.1900   26.7320 O   0  0  0  0  0  0  0  0  0  0  0  0
    5.5110   -4.3530   19.9220 O   0  0  0  0  0  0  0  0  0  0  0  0
    6.3890   -4.2300   20.7980 C   0  0  0  0  0  0  0  0  0  0  0  0
    7.3810   -3.0550   20.7660 C   0  0  0  0  0  0  0  0  0  0  0  0
    3.2130   -0.5240   25.9630 F   0  0  0  0  0  0  0  0  0  0  0  0
    4.7570   -5.5990   25.7840 S   0  0  0  0  0  0  0  0  0  0  0  0
    2.8880   -1.8230   25.8750 C   0  0  0  0  0  0  0  0  0  0  0  0
    3.9610   -2.8610   25.8720 C   0  0  0  0  0  0  0  0  0  0  0  0
    3.5380   -4.3160   25.7740 C   0  0  0  0  0  0  0  0  0  0  0  0
    2.1410   -4.6180   25.6820 C   0  0  0  0  0  0  0  0  0  0  0  0
    1.1800   -3.5620   25.6930 C   0  0  0  0  0  0  0  0  0  0  0  0
    1.5430   -2.2050   25.7900 C   0  0  0  0  0  0  0  0  0  0  0  0
    6.5470   -5.1400   21.8470 N   0  0  0  0  0  0  0  0  0  0  0  0
    5.6530   -6.2380   22.0570 C   0  0  0  0  0  0  0  0  0  0  0  0
    4.7150   -5.9350   23.0540 C   0  0  0  0  0  0  0  0  0  0  0  0
    5.5000   -5.5470   24.2770 N   0  0  0  0  0  0  0  0  0  0  0  0
    6.4100   -4.3870   24.0180 C   0  0  0  0  0  0  0  0  0  0  0  0
    7.3180   -4.8150   23.0540 C   0  0  0  0  0  0  0  0  0  0  0  0
  3  4  2  0
  4  5  1  0
  1  7  2  0
  2  7  2  0
  6  8  1  0
  8  9  2  0
  7 10  1  0
  9 10  1  0
 10 11  2  0
 11 12  1  0
  8 13  1  0
 12 13  2  0
  4 14  1  0
 14 15  1  0
 15 16  1  0
  7 17  1  0
 16 17  1  0
 17 18  1  0
 14 19  1  0
 18 19  1  0
M  END
