x0731-x1249
     RDKit          3D

 39 43  0  0  0  0  0  0  0  0999 V2000
    1.1440   -0.9620   25.9180 C   0  0  0  0  0  0  0  0  0  0  0  0
    6.3310   -4.8060   26.8710 O   0  0  0  0  0  0  0  0  0  0  0  0
    4.6810   -6.5730   26.1710 O   0  0  0  0  0  0  0  0  0  0  0  0
    5.3720   -4.7800   19.8560 O   0  0  0  0  0  0  0  0  0  0  0  0
    6.1710   -4.2630   20.6350 C   0  0  0  0  0  0  0  0  0  0  0  0
    6.4880   -3.0180   20.4870 C   0  0  0  0  0  0  0  0  0  0  0  0
    5.3160   -5.2910   25.9670 S   0  0  0  0  0  0  0  0  0  0  0  0
    8.1080    0.6610   24.8580 N   0  0  0  0  0  0  0  0  0  0  0  0
    7.3380    1.4850   23.9400 C   0  0  0  0  0  0  0  0  0  0  0  0
    7.8290    2.4620   23.3770 O   0  0  0  0  0  0  0  0  0  0  0  0
    9.4060    1.0860   25.2560 C   0  0  0  0  0  0  0  0  0  0  0  0
   13.6450   -2.1010   20.7150 N   0  0  0  0  0  0  0  0  0  0  0  0
   12.9670   -1.3650   21.7310 C   0  0  0  0  0  0  0  0  0  0  0  0
    1.5200    0.1690   25.0130 C   0  0  0  0  0  0  0  0  0  0  0  0
    2.7860    0.7650   25.0940 C   0  0  2  0  0  0  0  0  0  0  0  0
    2.1820   -2.0510   25.9330 C   0  0  0  0  0  0  0  0  0  0  0  0
    1.8100   -3.3610   25.6730 C   0  0  0  0  0  0  0  0  0  0  0  0
    2.7510   -4.3870   25.6730 C   0  0  0  0  0  0  0  0  0  0  0  0
    4.0840   -4.1110   25.9390 C   0  0  0  0  0  0  0  0  0  0  0  0
    4.4640   -2.7830   26.2090 C   0  0  0  0  0  0  0  0  0  0  0  0
    3.5200   -1.7640   26.2060 C   0  0  0  0  0  0  0  0  0  0  0  0
    6.7650   -4.9630   21.6770 N   0  0  0  0  0  0  0  0  0  0  0  0
    7.4200   -4.2650   22.7870 C   0  0  0  0  0  0  0  0  0  0  0  0
    6.4540   -3.9830   23.9040 C   0  0  0  0  0  0  0  0  0  0  0  0
    5.9440   -5.2760   24.4000 N   0  0  0  0  0  0  0  0  0  0  0  0
    5.2200   -6.0400   23.3350 C   0  0  0  0  0  0  0  0  0  0  0  0
    6.1070   -6.2090   22.0940 C   0  0  0  0  0  0  0  0  0  0  0  0
    3.4630    1.4580   23.9850 N   0  0  0  0  0  0  0  0  0  0  0  0
    3.7600    1.1100   22.6050 C   0  0  0  0  0  0  0  0  0  0  0  0
    5.3030    1.0750   22.4800 C   0  0  0  0  0  0  0  0  0  0  0  0
    6.0380    1.0820   23.7750 N   0  0  0  0  0  0  0  0  0  0  0  0
    5.3760    0.5050   24.9520 C   0  0  0  0  0  0  0  0  0  0  0  0
    4.0900    0.2480   24.5650 C   0  0  1  0  0  0  0  0  0  0  0  0
   11.5590    1.2050   23.8960 C   0  0  0  0  0  0  0  0  0  0  0  0
   12.4490    0.6000   23.0310 C   0  0  0  0  0  0  0  0  0  0  0  0
   12.1620   -0.6670   22.6150 C   0  0  0  0  0  0  0  0  0  0  0  0
   11.0390   -1.3340   23.0360 C   0  0  0  0  0  0  0  0  0  0  0  0
   10.1660   -0.7570   23.8910 C   0  0  0  0  0  0  0  0  0  0  0  0
   10.4140    0.5170   24.3280 C   0  0  0  0  0  0  0  0  0  0  0  0
  4  5  2  0
  5  6  1  0
  2  7  2  0
  3  7  2  0
  8  9  1  0
  9 10  2  0
  8 11  1  0
 12 13  3  0
  1 14  1  0
 15 14  1  6
  1 16  1  0
 16 17  2  0
 17 18  1  0
  7 19  1  0
 18 19  2  0
 19 20  1  0
 16 21  1  0
 20 21  2  0
  5 22  1  0
 22 23  1  0
 23 24  1  0
  7 25  1  0
 24 25  1  0
 25 26  1  0
 22 27  1  0
 26 27  1  0
 15 28  1  0
 28 29  1  0
 29 30  1  0
  9 31  1  0
 30 31  1  0
 31 32  1  0
 15 33  1  0
 28 33  1  0
 33 32  1  1
 34 35  2  0
 13 36  1  0
 35 36  1  0
 36 37  2  0
 37 38  1  0
 11 39  1  0
 34 39  1  0
 38 39  2  0
M  END
