
     RDKit          3D

 14 15  0  0  0  0  0  0  0  0999 V2000
    7.5310   -4.5790   21.2190 N   0  0  0  0  0  0  0  0  0  0  0  0
    7.1240   -3.0030   19.3970 C   0  0  0  0  0  0  0  0  0  0  0  0
    5.7620   -4.8750   19.8530 O   0  0  0  0  0  0  0  0  0  0  0  0
    6.7570   -4.2340   20.2000 C   0  0  0  0  0  0  0  0  0  0  0  0
    2.9300   -2.9960   25.1990 O   0  0  0  0  0  0  0  0  0  0  0  0
    7.0620   -5.4320   22.2950 C   0  0  0  0  0  0  0  0  0  0  0  0
    2.6200   -5.1880   24.5100 O   0  0  0  0  0  0  0  0  0  0  0  0
    5.9850   -4.7420   23.0890 C   0  0  0  0  0  0  0  0  0  0  0  0
    6.1520   -3.4310   23.4960 C   0  0  0  0  0  0  0  0  0  0  0  0
    5.1760   -2.7440   24.2220 C   0  0  0  0  0  0  0  0  0  0  0  0
    4.0360   -3.4340   24.5100 C   0  0  0  0  0  0  0  0  0  0  0  0
    1.9930   -4.0740   25.1460 C   0  0  0  0  0  0  0  0  0  0  0  0
    3.8520   -4.7350   24.1010 C   0  0  0  0  0  0  0  0  0  0  0  0
    4.7970   -5.4160   23.3860 C   0  0  0  0  0  0  0  0  0  0  0  0
  1  4  1  0
  1  6  1  0
  2  4  1  0
  3  4  2  0
  5 11  1  0
  5 12  1  0
  6  8  1  0
  7 12  1  0
  7 13  1  0
  8  9  2  0
  8 14  1  0
  9 10  1  0
 10 11  2  0
 11 13  1  0
 13 14  2  0
M  END
