x0759-x1226
     RDKit          3D

 14 15  0  0  0  0  0  0  0  0999 V2000
    5.7370   -4.0190   20.0310 O   0  0  0  0  0  0  0  0  0  0  0  0
    6.4750   -3.0190   20.1900 C   0  0  0  0  0  0  0  0  0  0  0  0
    6.5560   -2.0030   19.0740 C   0  0  0  0  0  0  0  0  0  0  0  0
   12.3880   -0.6670   23.4090 F   0  0  0  0  0  0  0  0  0  0  0  0
    7.3530   -2.7770   21.3550 N   0  0  0  0  0  0  0  0  0  0  0  0
    7.0010   -2.3030   22.6800 C   0  0  0  0  0  0  0  0  0  0  0  0
    7.9740   -1.4480   23.6190 C   0  0  0  0  0  0  0  0  0  0  0  0
    9.1320   -1.6240   22.7810 C   0  0  0  0  0  0  0  0  0  0  0  0
    8.7900   -3.1530   22.8430 C   0  0  0  0  0  0  0  0  0  0  0  0
    8.3360   -3.7000   21.6580 C   0  0  0  0  0  0  0  0  0  0  0  0
    8.9010   -0.6880   24.4300 C   0  0  0  0  0  0  0  0  0  0  0  0
   10.3070   -0.3920   24.3450 C   0  0  0  0  0  0  0  0  0  0  0  0
   11.0720   -0.9850   23.4120 C   0  0  0  0  0  0  0  0  0  0  0  0
   10.4830   -2.0260   22.4620 C   0  0  0  0  0  0  0  0  0  0  0  0
  1  2  2  0
  2  3  1  0
  2  5  1  0
  5  6  1  0
  6  7  1  0
  7  8  2  0
  8  9  1  0
  5 10  1  0
  9 10  1  0
  7 11  1  0
 11 12  2  0
  4 13  1  0
 12 13  1  0
  8 14  1  0
 13 14  2  0
M  END
