x0755-x0689
     RDKit          3D

 20 21  0  0  0  0  0  0  0  0999 V2000
    4.3870   -6.3230   26.2840 O   0  0  0  0  0  0  0  0  0  0  0  0
    6.0300   -4.5390   26.9320 O   0  0  0  0  0  0  0  0  0  0  0  0
    5.5510   -4.6670   19.9030 O   0  0  0  0  0  0  0  0  0  0  0  0
    6.3330   -4.3370   20.8020 C   0  0  0  0  0  0  0  0  0  0  0  0
    7.1300   -3.0560   20.7130 C   0  0  0  0  0  0  0  0  0  0  0  0
    1.8560   -5.4180   25.6960 F   0  0  0  0  0  0  0  0  0  0  0  0
    5.5040   -1.9760   26.1510 F   0  0  0  0  0  0  0  0  0  0  0  0
    5.0190   -5.0470   26.0370 S   0  0  0  0  0  0  0  0  0  0  0  0
    2.2830   -4.1550   25.7710 C   0  0  0  0  0  0  0  0  0  0  0  0
    3.8050   -3.8020   25.9340 C   0  0  0  0  0  0  0  0  0  0  0  0
    4.2170   -2.3250   26.0110 C   0  0  0  0  0  0  0  0  0  0  0  0
    3.2820   -1.3240   25.9430 C   0  0  0  0  0  0  0  0  0  0  0  0
    1.9740   -1.9400   25.7970 C   0  0  0  0  0  0  0  0  0  0  0  0
    1.3380   -3.1260   25.7030 C   0  0  0  0  0  0  0  0  0  0  0  0
    6.5280   -5.1230   21.9170 N   0  0  0  0  0  0  0  0  0  0  0  0
    7.3910   -4.6180   22.9960 C   0  0  0  0  0  0  0  0  0  0  0  0
    6.5890   -4.0850   23.9880 C   0  0  0  0  0  0  0  0  0  0  0  0
    5.6790   -5.1580   24.4760 N   0  0  0  0  0  0  0  0  0  0  0  0
    4.8030   -5.7390   23.4090 C   0  0  0  0  0  0  0  0  0  0  0  0
    5.5830   -6.1720   22.3280 C   0  0  0  0  0  0  0  0  0  0  0  0
  3  4  2  0
  4  5  1  0
  1  8  2  0
  2  8  2  0
  6  9  1  0
  8 10  1  0
  9 10  2  0
  7 11  1  0
 10 11  1  0
 11 12  2  0
 12 13  1  0
  9 14  1  0
 13 14  2  0
  4 15  1  0
 15 16  1  0
 16 17  1  0
  8 18  1  0
 17 18  1  0
 18 19  1  0
 15 20  1  0
 19 20  1  0
M  END
