x0755-x1163
     RDKit          3D

 20 21  0  0  0  0  0  0  0  0999 V2000
    4.4580   -6.3300   26.2570 O   0  0  0  0  0  0  0  0  0  0  0  0
    6.1110   -4.5400   26.8480 O   0  0  0  0  0  0  0  0  0  0  0  0
    5.3830   -4.6280   19.8270 O   0  0  0  0  0  0  0  0  0  0  0  0
    6.0350   -4.2870   20.8150 C   0  0  0  0  0  0  0  0  0  0  0  0
    6.4350   -2.8430   20.9900 C   0  0  0  0  0  0  0  0  0  0  0  0
    1.9020   -5.4370   25.6830 F   0  0  0  0  0  0  0  0  0  0  0  0
    5.5400   -1.9770   26.1080 F   0  0  0  0  0  0  0  0  0  0  0  0
    5.0820   -5.0550   25.9770 S   0  0  0  0  0  0  0  0  0  0  0  0
    2.3290   -4.1750   25.7610 C   0  0  0  0  0  0  0  0  0  0  0  0
    3.8530   -3.8130   25.9030 C   0  0  0  0  0  0  0  0  0  0  0  0
    4.2570   -2.3380   25.9870 C   0  0  0  0  0  0  0  0  0  0  0  0
    3.3140   -1.3350   25.9410 C   0  0  0  0  0  0  0  0  0  0  0  0
    2.0090   -1.9610   25.8120 C   0  0  0  0  0  0  0  0  0  0  0  0
    1.3770   -3.1470   25.7170 C   0  0  0  0  0  0  0  0  0  0  0  0
    6.4400   -5.1740   21.7890 N   0  0  0  0  0  0  0  0  0  0  0  0
    7.3830   -4.6910   22.8020 C   0  0  0  0  0  0  0  0  0  0  0  0
    6.6670   -4.1700   23.8760 C   0  0  0  0  0  0  0  0  0  0  0  0
    5.7130   -5.1970   24.4000 N   0  0  0  0  0  0  0  0  0  0  0  0
    4.8110   -5.7980   23.3640 C   0  0  0  0  0  0  0  0  0  0  0  0
    5.5620   -6.2390   22.2680 C   0  0  0  0  0  0  0  0  0  0  0  0
  3  4  2  0
  4  5  1  0
  1  8  2  0
  2  8  2  0
  6  9  1  0
  8 10  1  0
  9 10  2  0
  7 11  1  0
 10 11  1  0
 11 12  2  0
 12 13  1  0
  9 14  1  0
 13 14  2  0
  4 15  1  0
 15 16  1  0
 16 17  1  0
  8 18  1  0
 17 18  1  0
 18 19  1  0
 15 20  1  0
 19 20  1  0
M  END
