x0770-x0887
     RDKit          3D

 17 18  0  0  0  0  0  0  0  0999 V2000
    6.0390   -2.0550   18.6830 C   0  0  0  0  0  0  0  0  0  0  0  0
    5.3420   -4.0820   19.7340 O   0  0  0  0  0  0  0  0  0  0  0  0
   13.3540   -1.7210   21.2240 Cl  0  0  0  0  0  0  0  0  0  0  0  0
    5.8590   -2.9640   19.8700 C   0  0  0  0  0  0  0  0  0  0  0  0
    9.2840   -2.2930   24.2340 C   0  0  0  0  0  0  0  0  0  0  0  0
    6.3570   -2.4910   21.0630 N   0  0  0  0  0  0  0  0  0  0  0  0
    7.3320   -1.3750   21.1030 C   0  0  0  0  0  0  0  0  0  0  0  0
    8.5550   -1.6440   21.9880 C   0  0  0  0  0  0  0  0  0  0  0  0
    8.1890   -2.2280   23.2750 N   0  0  0  0  0  0  0  0  0  0  0  0
    7.4990   -3.5090   23.0700 C   0  0  0  0  0  0  0  0  0  0  0  0
    6.1970   -3.3320   22.2620 C   0  0  0  0  0  0  0  0  0  0  0  0
   10.7180   -0.2230   24.4630 C   0  0  0  0  0  0  0  0  0  0  0  0
   11.8130    0.5500   24.0700 C   0  0  0  0  0  0  0  0  0  0  0  0
   12.6570    0.1080   23.0670 C   0  0  0  0  0  0  0  0  0  0  0  0
   12.3840   -1.1120   22.4650 C   0  0  0  0  0  0  0  0  0  0  0  0
   11.3090   -1.8860   22.8380 C   0  0  0  0  0  0  0  0  0  0  0  0
   10.4620   -1.4520   23.8390 C   0  0  0  0  0  0  0  0  0  0  0  0
  1  4  1  0
  2  4  2  0
  4  6  1  0
  6  7  1  0
  7  8  1  0
  5  9  1  0
  8  9  1  0
  9 10  1  0
  6 11  1  0
 10 11  1  0
 12 13  2  0
 13 14  1  0
  3 15  1  0
 14 15  2  0
 15 16  1  0
  5 17  1  0
 12 17  1  0
 16 17  2  0
M  END
