x0820-x0995
     RDKit          3D

 16 17  0  0  0  0  0  0  0  0999 V2000
    6.8310   -4.7740   21.7780 N   0  0  0  0  0  0  0  0  0  0  0  0
    7.6480   -2.5230   22.4910 C   0  0  0  0  0  0  0  0  0  0  0  0
    5.5050   -5.0260   19.9400 O   0  0  0  0  0  0  0  0  0  0  0  0
    7.3100   -3.9660   22.8930 C   0  0  1  0  0  0  0  0  0  0  0  0
    6.2010   -4.3050   20.6460 C   0  0  0  0  0  0  0  0  0  0  0  0
    6.4050   -2.8570   20.2810 C   0  0  0  0  0  0  0  0  0  0  0  0
    6.3100   -4.0950   24.0280 C   0  0  0  0  0  0  0  0  0  0  0  0
    6.7460   -4.3740   25.3610 C   0  0  0  0  0  0  0  0  0  0  0  0
    5.7700   -4.4720   26.3880 C   0  0  0  0  0  0  0  0  0  0  0  0
    4.4140   -4.3070   26.0890 C   0  0  0  0  0  0  0  0  0  0  0  0
    3.9960   -4.0440   24.7900 C   0  0  0  0  0  0  0  0  0  0  0  0
    4.9350   -3.9380   23.7720 C   0  0  0  0  0  0  0  0  0  0  0  0
    6.1520   -4.7380   27.7140 C   0  0  0  0  0  0  0  0  0  0  0  0
    7.4830   -4.9230   28.0510 C   0  0  0  0  0  0  0  0  0  0  0  0
    8.4470   -4.8440   27.0670 C   0  0  0  0  0  0  0  0  0  0  0  0
    8.0970   -4.5670   25.7430 C   0  0  0  0  0  0  0  0  0  0  0  0
  1  4  1  0
  4  2  1  6
  1  5  1  0
  3  5  2  0
  5  6  1  0
  4  7  1  0
  7  8  2  0
  8  9  1  0
  9 10  2  0
 10 11  1  0
  7 12  1  0
 11 12  2  0
  9 13  1  0
 13 14  2  0
 14 15  1  0
  8 16  1  0
 15 16  2  0
M  END
