x0978-x0769
     RDKit          3D

 27 30  0  0  0  0  0  0  0  0999 V2000
    2.3160   -7.4160   25.5150 C   0  0  0  0  0  0  0  0  0  0  0  0
    1.9280   -5.6550   23.2170 N   0  0  0  0  0  0  0  0  0  0  0  0
    4.4950   -7.7850   24.7940 O   0  0  0  0  0  0  0  0  0  0  0  0
    3.5090   -6.7620   24.8210 C   0  0  1  0  0  0  0  0  0  0  0  0
    0.8530   -7.2560   21.9790 O   0  0  0  0  0  0  0  0  0  0  0  0
    3.2080   -6.3650   23.3710 C   0  0  2  0  0  0  0  0  0  0  0  0
    4.2170   -4.1990   23.2320 O   0  0  0  0  0  0  0  0  0  0  0  0
    0.8270   -6.1990   22.5990 C   0  0  0  0  0  0  0  0  0  0  0  0
   -0.4400   -5.3970   22.7320 C   0  0  0  0  0  0  0  0  0  0  0  0
    6.8810   -4.8050   21.1100 C   0  0  0  0  0  0  0  0  0  0  0  0
    5.7160   -5.0990   20.2380 C   0  0  0  0  0  0  0  0  0  0  0  0
    6.9980   -3.3080   21.2620 C   0  0  0  0  0  0  0  0  0  0  0  0
    5.6450   -5.6170   26.4540 O   0  0  0  0  0  0  0  0  0  0  0  0
    5.4780   -2.8190   26.1540 F   0  0  0  0  0  0  0  0  0  0  0  0
    4.1900   -5.4740   25.6140 S   0  0  0  0  0  0  0  0  0  0  0  0
    4.1280   -2.7920   26.0650 C   0  0  0  0  0  0  0  0  0  0  0  0
    3.4170   -3.9440   25.8210 C   0  0  0  0  0  0  0  0  0  0  0  0
    1.9020   -3.9650   25.7190 C   0  0  0  0  0  0  0  0  0  0  0  0
    1.2290   -2.6200   25.9090 C   0  0  0  0  0  0  0  0  0  0  0  0
    2.0950   -1.4290   26.1680 C   0  0  0  0  0  0  0  0  0  0  0  0
    3.4590   -1.5870   26.2270 C   0  0  0  0  0  0  0  0  0  0  0  0
    6.7850   -5.4440   22.3260 N   0  0  0  0  0  0  0  0  0  0  0  0
    5.6530   -6.2190   22.5120 C   0  0  0  0  0  0  0  0  0  0  0  0
    4.4240   -5.5400   23.0510 C   0  0  2  0  0  0  0  0  0  0  0  0
    4.9730   -4.9760   24.3250 C   0  0  1  0  0  0  0  0  0  0  0  0
    6.2670   -4.1570   24.3280 C   0  0  0  0  0  0  0  0  0  0  0  0
    7.2960   -4.7810   23.4160 C   0  0  0  0  0  0  0  0  0  0  0  0
  4  1  1  1
  4  3  1  0
  6  2  1  1
  4  6  1  0
  2  8  1  0
  5  8  2  0
  8  9  1  0
 10 11  1  0
 10 12  1  0
  4 15  1  0
 13 15  2  0
 14 16  1  0
 15 17  1  0
 16 17  2  0
 17 18  1  0
 18 19  2  0
 19 20  1  0
 16 21  1  0
 20 21  2  0
 10 22  1  0
 22 23  1  0
  6 24  1  0
 24  7  1  0
 24 23  1  6
 25  7  1  0
 15 25  1  0
 24 25  1  0
 25 26  1  1
 22 27  1  0
 26 27  1  0
M  END
