x0978-x0072
     RDKit          3D

 29 29  0  0  0  0  0  0  0  0999 V2000
    2.0690   -8.3840   24.7920 C   0  0  0  0  0  0  0  0  0  0  0  0
    1.7640   -5.6320   23.2120 N   0  0  0  0  0  0  0  0  0  0  0  0
    4.3620   -7.7770   24.7920 O   0  0  0  0  0  0  0  0  0  0  0  0
    3.0490   -7.2280   24.6480 C   0  0  1  0  0  0  0  0  0  0  0  0
    5.3380   -6.2190   22.7670 N   0  0  0  0  0  0  0  0  0  0  0  0
    0.6350   -7.1410   21.9230 O   0  0  0  0  0  0  0  0  0  0  0  0
    2.9590   -6.4640   23.3110 C   0  0  2  0  0  0  0  0  0  0  0  0
    4.1130   -4.3190   23.2180 O   0  0  0  0  0  0  0  0  0  0  0  0
    0.6450   -6.1000   22.5710 C   0  0  0  0  0  0  0  0  0  0  0  0
   -0.5830   -5.2460   22.7110 C   0  0  0  0  0  0  0  0  0  0  0  0
    4.1870   -5.5430   23.1020 C   0  0  0  0  0  0  0  0  0  0  0  0
    6.4920   -5.5620   22.4300 C   0  0  0  0  0  0  0  0  0  0  0  0
    6.7320   -5.3250   21.1790 C   0  0  0  0  0  0  0  0  0  0  0  0
    5.7840   -5.7420   20.1530 C   0  0  0  0  0  0  0  0  0  0  0  0
    6.6080   -5.1360   26.5030 C   0  0  0  0  0  0  0  0  0  0  0  0
    8.2720   -4.5270   26.3030 S   0  0  0  0  0  0  0  0  0  0  0  0
    9.1010   -5.6350   25.9000 O   0  0  0  0  0  0  0  0  0  0  0  0
    8.5930   -3.7680   27.4770 O   0  0  0  0  0  0  0  0  0  0  0  0
    8.1670   -3.5990   25.1630 N   0  0  0  0  0  0  0  0  0  0  0  0
    9.4590   -3.1310   24.5920 C   0  0  0  0  0  0  0  0  0  0  0  0
    9.2950   -1.9580   23.6430 C   0  0  0  0  0  0  0  0  0  0  0  0
    7.4750   -5.1050   23.4660 C   0  0  0  0  0  0  0  0  0  0  0  0
    7.1590   -3.9540   24.1240 C   0  0  0  0  0  0  0  0  0  0  0  0
   10.6060   -1.2710   23.3800 C   0  0  0  0  0  0  0  0  0  0  0  0
   11.5600   -1.9540   22.4420 C   0  0  0  0  0  0  0  0  0  0  0  0
   12.8460   -1.1850   22.2510 C   0  0  0  0  0  0  0  0  0  0  0  0
   13.1090    0.1390   22.9430 C   0  0  0  0  0  0  0  0  0  0  0  0
   12.0180    0.6530   23.8440 C   0  0  0  0  0  0  0  0  0  0  0  0
   10.8490   -0.0530   24.0220 C   0  0  0  0  0  0  0  0  0  0  0  0
  4  1  1  6
  3  4  1  0
  7  2  1  1
  4  7  1  0
  2  9  1  0
  6  9  2  0
  9 10  1  0
  5 11  1  0
  7 11  1  0
  8 11  2  0
  5 12  1  0
 12 13  2  3
 13 14  1  0
 15 16  1  0
 16 17  2  0
 16 18  2  0
 16 19  1  0
 19 20  1  0
 20 21  1  0
 12 22  1  0
 19 23  1  0
 22 23  1  0
 21 24  1  0
 24 25  2  0
 25 26  1  0
 26 27  2  0
 27 28  1  0
 24 29  1  0
 28 29  2  0
M  END
