x0995-x0692
     RDKit          3D

 17 18  0  0  0  0  0  0  0  0999 V2000
   11.0190    2.4240   23.6550 C   0  0  0  0  0  0  0  0  0  0  0  0
    5.4480   -3.9220   19.7130 O   0  0  0  0  0  0  0  0  0  0  0  0
    9.3320   -2.3850   23.9590 C   0  0  0  0  0  0  0  0  0  0  0  0
    6.0430   -2.8270   19.7750 C   0  0  0  0  0  0  0  0  0  0  0  0
    6.3310   -2.0980   18.5980 C   0  0  0  0  0  0  0  0  0  0  0  0
   11.2810    0.9560   23.5540 C   0  0  0  0  0  0  0  0  0  0  0  0
   10.2340    0.0770   23.8100 C   0  0  0  0  0  0  0  0  0  0  0  0
   10.4710   -1.4260   23.6960 C   0  0  0  0  0  0  0  0  0  0  0  0
   11.6850   -1.8570   23.3600 C   0  0  0  0  0  0  0  0  0  0  0  0
   12.7960   -0.9000   23.0960 C   0  0  0  0  0  0  0  0  0  0  0  0
   12.5560    0.4740   23.2010 C   0  0  0  0  0  0  0  0  0  0  0  0
    6.4840   -2.2460   20.9470 N   0  0  0  0  0  0  0  0  0  0  0  0
    7.6220   -1.3170   20.9800 C   0  0  0  0  0  0  0  0  0  0  0  0
    8.7170   -1.8310   21.6770 C   0  0  0  0  0  0  0  0  0  0  0  0
    8.3420   -2.3630   22.9830 N   0  0  0  0  0  0  0  0  0  0  0  0
    7.1910   -3.2830   22.9640 C   0  0  0  0  0  0  0  0  0  0  0  0
    6.0930   -2.8200   22.2350 C   0  0  0  0  0  0  0  0  0  0  0  0
  2  4  2  0
  4  5  1  0
  1  6  1  0
  6  7  2  0
  3  8  1  0
  7  8  1  0
  8  9  2  0
  9 10  1  0
  6 11  1  0
 10 11  2  0
  4 12  1  0
 12 13  1  0
 13 14  1  0
  3 15  1  0
 14 15  1  0
 15 16  1  0
 12 17  1  0
 16 17  1  0
M  END
