x0995-x0731
     RDKit          3D

 19 20  0  0  0  0  0  0  0  0999 V2000
    0.9120   -0.9180   26.0360 C   0  0  0  0  0  0  0  0  0  0  0  0
    6.5290   -4.8520   26.6030 O   0  0  0  0  0  0  0  0  0  0  0  0
    4.7090   -6.5030   26.0050 O   0  0  0  0  0  0  0  0  0  0  0  0
    5.3230   -4.7000   19.8510 O   0  0  0  0  0  0  0  0  0  0  0  0
    6.2020   -4.2810   20.6080 C   0  0  0  0  0  0  0  0  0  0  0  0
    6.7350   -2.8360   20.4590 C   0  0  0  0  0  0  0  0  0  0  0  0
    5.4000   -5.2520   25.8030 S   0  0  0  0  0  0  0  0  0  0  0  0
    2.0170   -1.9550   25.9750 C   0  0  0  0  0  0  0  0  0  0  0  0
    1.8110   -3.3090   25.3810 C   0  0  0  0  0  0  0  0  0  0  0  0
    2.8070   -4.2640   25.3290 C   0  0  0  0  0  0  0  0  0  0  0  0
    4.1980   -3.9510   25.9020 C   0  0  0  0  0  0  0  0  0  0  0  0
    4.3750   -2.7250   26.4290 C   0  0  0  0  0  0  0  0  0  0  0  0
    3.2940   -1.6830   26.4850 C   0  0  0  0  0  0  0  0  0  0  0  0
    6.7700   -5.0570   21.5970 N   0  0  0  0  0  0  0  0  0  0  0  0
    7.5770   -4.4800   22.6780 C   0  0  0  0  0  0  0  0  0  0  0  0
    6.7520   -4.2300   23.7610 C   0  0  0  0  0  0  0  0  0  0  0  0
    5.9200   -5.2200   24.1760 N   0  0  0  0  0  0  0  0  0  0  0  0
    5.3750   -6.0410   23.2490 C   0  0  0  0  0  0  0  0  0  0  0  0
    6.0160   -6.1490   22.0380 C   0  0  0  0  0  0  0  0  0  0  0  0
  4  5  2  0
  5  6  1  0
  2  7  2  0
  3  7  2  0
  1  8  1  0
  8  9  2  0
  9 10  1  0
  7 11  1  0
 10 11  2  0
 11 12  1  0
  8 13  1  0
 12 13  2  0
  5 14  1  0
 14 15  1  0
 15 16  1  0
  7 17  1  0
 16 17  1  0
 17 18  1  0
 14 19  1  0
 18 19  1  0
M  END
