x0995-x0831
     RDKit          3D

 18 19  0  0  0  0  0  0  0  0999 V2000
   12.5980   -2.1040   22.2750 C   0  0  0  0  0  0  0  0  0  0  0  0
    5.3720   -4.2450   19.7310 O   0  0  0  0  0  0  0  0  0  0  0  0
    9.9250   -2.1940   23.5010 C   0  0  0  0  0  0  0  0  0  0  0  0
    5.8060   -3.1110   19.9810 C   0  0  0  0  0  0  0  0  0  0  0  0
    5.9870   -2.1610   18.9470 C   0  0  0  0  0  0  0  0  0  0  0  0
   12.0170   -0.8810   22.9180 C   0  0  0  0  0  0  0  0  0  0  0  0
   10.7470   -0.9200   23.5090 C   0  0  0  0  0  0  0  0  0  0  0  0
   10.2140    0.3570   24.1410 C   0  0  0  0  0  0  0  0  0  0  0  0
   10.9180    1.4630   24.1220 C   0  0  0  0  0  0  0  0  0  0  0  0
   12.2600    1.4810   23.4870 C   0  0  0  0  0  0  0  0  0  0  0  0
   12.7600    0.3110   22.9150 C   0  0  0  0  0  0  0  0  0  0  0  0
    6.1620   -2.7240   21.2610 N   0  0  0  0  0  0  0  0  0  0  0  0
    6.1770   -1.3060   21.6500 C   0  0  0  0  0  0  0  0  0  0  0  0
    7.4160   -0.6870   21.4370 C   0  0  0  0  0  0  0  0  0  0  0  0
    8.5800   -1.4310   21.5380 C   0  0  0  0  0  0  0  0  0  0  0  0
    8.7190   -2.1210   22.8230 N   0  0  0  0  0  0  0  0  0  0  0  0
    7.6480   -3.0060   23.2960 C   0  0  0  0  0  0  0  0  0  0  0  0
    6.7840   -3.6710   22.2010 C   0  0  0  0  0  0  0  0  0  0  0  0
  2  4  2  0
  4  5  1  0
  1  6  1  0
  3  7  1  0
  6  7  2  0
  7  8  1  0
  8  9  2  0
  9 10  1  0
  6 11  1  0
 10 11  2  0
  4 12  1  0
 12 13  1  0
 13 14  1  0
 14 15  1  0
  3 16  1  0
 15 16  1  0
 16 17  1  0
 12 18  1  0
 17 18  1  0
M  END
