x0995-x0395
     RDKit          3D

 14 15  0  0  0  0  0  0  0  0999 V2000
    9.4610   -5.2620   26.4850 C   0  0  0  0  0  0  0  0  0  0  0  0
    8.9750   -1.2290   22.9840 C   0  0  0  0  0  0  0  0  0  0  0  0
   13.5250   -1.6040   21.6230 F   0  0  0  0  0  0  0  0  0  0  0  0
    9.0420   -4.0150   25.7490 C   0  0  0  0  0  0  0  0  0  0  0  0
    8.0210   -3.1610   26.1340 N   0  0  0  0  0  0  0  0  0  0  0  0
    7.8630   -2.0820   25.2380 N   0  0  0  0  0  0  0  0  0  0  0  0
    8.8300   -2.1840   24.1500 C   0  0  0  0  0  0  0  0  0  0  0  0
    9.8420   -3.5450   24.3050 S   0  0  0  0  0  0  0  0  0  0  0  0
   10.7900    0.2370   24.0100 C   0  0  0  0  0  0  0  0  0  0  0  0
   11.7520    1.0850   23.4740 C   0  0  0  0  0  0  0  0  0  0  0  0
   12.7920    0.2550   22.7570 C   0  0  0  0  0  0  0  0  0  0  0  0
   12.5460   -0.9480   22.2560 C   0  0  0  0  0  0  0  0  0  0  0  0
   11.2100   -1.5960   22.3620 C   0  0  0  0  0  0  0  0  0  0  0  0
   10.2210   -0.6240   22.9100 N   0  0  0  0  0  0  0  0  0  0  0  0
  1  4  1  0
  4  5  2  0
  5  6  1  0
  2  7  1  0
  6  7  2  0
  4  8  1  0
  7  8  1  0
  9 10  1  0
 10 11  1  0
  3 12  1  0
 11 12  2  0
 12 13  1  0
  2 14  1  0
  9 14  1  0
 13 14  1  0
M  END
