x0995-x1478
     RDKit          3D

 11 11  0  0  0  0  0  0  0  0999 V2000
    7.1320   -2.8510   21.4140 N   0  0  0  0  0  0  0  0  0  0  0  0
    7.3720   -1.7830   19.1970 C   0  0  0  0  0  0  0  0  0  0  0  0
    5.6390   -3.5540   19.4770 O   0  0  0  0  0  0  0  0  0  0  0  0
    6.5070   -5.8660   21.9590 Cl  0  0  0  0  0  0  0  0  0  0  0  0
    6.6880   -2.7870   20.1190 C   0  0  0  0  0  0  0  0  0  0  0  0
    4.9110   -4.7010   23.8270 N   0  0  0  0  0  0  0  0  0  0  0  0
    5.8880   -4.4600   22.7420 C   0  0  0  0  0  0  0  0  0  0  0  0
    6.2520   -3.1420   22.4100 C   0  0  0  0  0  0  0  0  0  0  0  0
    5.6760   -1.9820   23.1400 C   0  0  0  0  0  0  0  0  0  0  0  0
    4.7650   -2.2030   24.1550 C   0  0  0  0  0  0  0  0  0  0  0  0
    4.3580   -3.6460   24.5160 C   0  0  0  0  0  0  0  0  0  0  0  0
  1  5  1  0
  2  5  1  0
  3  5  2  0
  4  7  1  0
  6  7  2  0
  1  8  1  0
  7  8  1  0
  8  9  2  0
  9 10  1  0
  6 11  1  0
 10 11  2  0
M  END
