x0995-x1402
     RDKit          3D

 18 19  0  0  0  0  0  0  0  0999 V2000
    7.2020   -3.0280   20.7130 C   0  0  0  0  0  0  0  0  0  0  0  0
    5.4150   -4.4870   19.8270 O   0  0  0  0  0  0  0  0  0  0  0  0
    0.7200   -1.3090   26.1760 Cl  0  0  0  0  0  0  0  0  0  0  0  0
    6.4230   -4.3350   20.8520 C   0  0  0  0  0  0  0  0  0  0  0  0
    3.8940   -6.3980   25.9220 O   0  0  0  0  0  0  0  0  0  0  0  0
    5.9450   -5.2810   26.8640 O   0  0  0  0  0  0  0  0  0  0  0  0
    4.8990   -5.3660   25.8740 S   0  0  0  0  0  0  0  0  0  0  0  0
    6.7350   -5.2090   21.8730 N   0  0  0  0  0  0  0  0  0  0  0  0
    7.4530   -4.7440   23.0600 C   0  0  0  0  0  0  0  0  0  0  0  0
    6.5370   -4.2990   24.0110 C   0  0  0  0  0  0  0  0  0  0  0  0
    5.6440   -5.4390   24.3470 N   0  0  0  0  0  0  0  0  0  0  0  0
    4.8600   -5.8280   23.2820 C   0  0  0  0  0  0  0  0  0  0  0  0
    5.6780   -6.2010   22.2010 C   0  0  0  0  0  0  0  0  0  0  0  0
    2.3620   -3.7990   25.9930 S   0  0  0  0  0  0  0  0  0  0  0  0
    4.0870   -3.7990   25.9640 C   0  0  0  0  0  0  0  0  0  0  0  0
    4.5530   -2.5510   26.0170 C   0  0  0  0  0  0  0  0  0  0  0  0
    3.5080   -1.5180   26.0920 C   0  0  0  0  0  0  0  0  0  0  0  0
    2.2450   -2.0880   26.0910 C   0  0  0  0  0  0  0  0  0  0  0  0
  1  4  1  0
  2  4  2  0
  5  7  2  0
  6  7  2  0
  4  8  1  0
  8  9  1  0
  9 10  1  0
  7 11  1  0
 10 11  1  0
 11 12  1  0
  8 13  1  0
 12 13  1  0
  7 15  1  0
 14 15  1  0
 15 16  2  0
 16 17  1  0
  3 18  1  0
 14 18  1  0
 17 18  2  0
M  END
