x0995-x0177
     RDKit          3D

 18 19  0  0  0  0  0  0  0  0999 V2000
   23.5810  -16.7030   26.0400 N   0  0  0  0  0  0  0  0  0  0  0  0
   24.3970  -17.5900   25.3240 C   0  0  0  0  0  0  0  0  0  0  0  0
   25.7170  -17.9320   25.7420 O   0  0  0  0  0  0  0  0  0  0  0  0
   22.6970  -21.9950   22.1860 C   0  0  0  0  0  0  0  0  0  0  0  0
   21.5920  -22.4450   22.4910 O   0  0  0  0  0  0  0  0  0  0  0  0
   23.3380  -22.3580   21.0090 N   0  0  0  0  0  0  0  0  0  0  0  0
   23.8410  -18.2060   24.0620 C   0  0  0  0  0  0  0  0  0  0  0  0
   22.6450  -18.9380   24.1300 C   0  0  0  0  0  0  0  0  0  0  0  0
   22.7700  -20.4350   24.2210 C   0  0  0  0  0  0  0  0  0  0  0  0
   23.3690  -21.0490   22.9910 N   0  0  0  0  0  0  0  0  0  0  0  0
   24.2930  -20.0590   22.3240 C   0  0  0  0  0  0  0  0  0  0  0  0
   24.9020  -19.0900   23.3740 C   0  0  0  0  0  0  0  0  0  0  0  0
   22.4900  -23.0250   18.7040 C   0  0  0  0  0  0  0  0  0  0  0  0
   21.8650  -24.0840   17.8810 C   0  0  0  0  0  0  0  0  0  0  0  0
   21.5040  -25.3320   18.4020 C   0  0  0  0  0  0  0  0  0  0  0  0
   21.7590  -25.5390   19.7520 C   0  0  0  0  0  0  0  0  0  0  0  0
   22.3530  -24.5430   20.5530 C   0  0  0  0  0  0  0  0  0  0  0  0
   22.7230  -23.2970   20.0540 C   0  0  0  0  0  0  0  0  0  0  0  0
  1  2  1  0
  2  3  2  0
  4  5  2  0
  4  6  1  0
  2  7  1  0
  7  8  1  0
  8  9  1  0
  4 10  1  0
  9 10  1  0
 10 11  1  0
  7 12  1  0
 11 12  1  0
 13 14  2  0
 14 15  1  0
 15 16  2  0
 16 17  1  0
  6 18  1  0
 13 18  1  0
 17 18  2  0
M  END
