x0995-x0354
     RDKit          3D

 18 19  0  0  0  0  0  0  0  0999 V2000
   13.0950   -1.1310   22.4460 C   0  0  0  0  0  0  0  0  0  0  0  0
    7.6260   -2.1770   25.2130 O   0  0  0  0  0  0  0  0  0  0  0  0
    7.3960   -0.4870   27.4670 O   0  0  0  0  0  0  0  0  0  0  0  0
    8.7090   -1.2590   25.4570 C   0  0  0  0  0  0  0  0  0  0  0  0
    8.3330   -0.1270   26.4510 C   0  0  0  0  0  0  0  0  0  0  0  0
    5.7060    3.7700   30.7850 C   0  0  0  0  0  0  0  0  0  0  0  0
   12.3390   -1.3080   23.5530 N   0  0  0  0  0  0  0  0  0  0  0  0
   11.4340   -2.4630   23.3890 C   0  0  0  0  0  0  0  0  0  0  0  0
   10.4210   -2.6190   24.3330 C   0  0  0  0  0  0  0  0  0  0  0  0
    9.9910   -1.3480   24.9180 N   0  0  0  0  0  0  0  0  0  0  0  0
   10.8260   -0.2910   24.9420 C   0  0  0  0  0  0  0  0  0  0  0  0
   11.6570   -0.0700   23.9330 C   0  0  0  0  0  0  0  0  0  0  0  0
    7.6600    1.6630   28.3380 C   0  0  0  0  0  0  0  0  0  0  0  0
    7.2850    2.7410   29.1420 C   0  0  0  0  0  0  0  0  0  0  0  0
    6.1400    2.6330   29.9130 C   0  0  0  0  0  0  0  0  0  0  0  0
    5.3820    1.4550   29.8780 C   0  0  0  0  0  0  0  0  0  0  0  0
    5.7700    0.3950   29.0760 C   0  0  0  0  0  0  0  0  0  0  0  0
    6.9180    0.4900   28.2950 C   0  0  0  0  0  0  0  0  0  0  0  0
  2  4  2  0
  3  5  1  0
  4  5  1  0
  1  7  1  0
  7  8  1  0
  8  9  1  0
  4 10  1  0
  9 10  1  0
 10 11  1  0
  7 12  1  0
 11 12  1  0
 13 14  2  0
  6 15  1  0
 14 15  1  0
 15 16  2  0
 16 17  1  0
  3 18  1  0
 13 18  1  0
 17 18  2  0
M  END
