x0995-x1249
     RDKit          3D

 26 28  0  0  0  0  0  0  0  0999 V2000
    8.1200    0.6380   24.8170 N   0  0  0  0  0  0  0  0  0  0  0  0
    7.4050    1.4790   23.9590 C   0  0  0  0  0  0  0  0  0  0  0  0
    8.0660    2.5770   23.3310 O   0  0  0  0  0  0  0  0  0  0  0  0
    9.3970    0.9550   25.2230 C   0  0  0  0  0  0  0  0  0  0  0  0
   13.5800   -2.5080   20.7350 N   0  0  0  0  0  0  0  0  0  0  0  0
   12.9250   -1.6650   21.6860 C   0  0  0  0  0  0  0  0  0  0  0  0
    3.6630    1.9270   19.9160 N   0  0  0  0  0  0  0  0  0  0  0  0
    3.2140    1.8270   21.3200 C   0  0  0  0  0  0  0  0  0  0  0  0
    3.4150    1.0520   23.5310 O   0  0  0  0  0  0  0  0  0  0  0  0
    4.1730    1.2090   22.3290 C   0  0  2  0  0  0  0  0  0  0  0  0
    5.4010    1.8370   22.6080 C   0  0  0  0  0  0  0  0  0  0  0  0
    6.0660    1.1910   23.7710 N   0  0  0  0  0  0  0  0  0  0  0  0
    5.1830    0.8400   24.8970 C   0  0  0  0  0  0  0  0  0  0  0  0
    4.0550    0.2410   24.5080 C   0  0  0  0  0  0  0  0  0  0  0  0
   11.5550    0.9880   23.8610 C   0  0  0  0  0  0  0  0  0  0  0  0
   12.4730    0.3690   22.9770 C   0  0  0  0  0  0  0  0  0  0  0  0
   12.1510   -0.9170   22.5640 C   0  0  0  0  0  0  0  0  0  0  0  0
   11.0100   -1.5360   23.0060 C   0  0  0  0  0  0  0  0  0  0  0  0
   10.1620   -0.9300   23.8440 C   0  0  0  0  0  0  0  0  0  0  0  0
   10.3870    0.3310   24.2980 C   0  0  0  0  0  0  0  0  0  0  0  0
    4.6440    1.1210   19.3910 C   0  0  0  0  0  0  0  0  0  0  0  0
    5.3220    1.2970   18.2020 C   0  0  0  0  0  0  0  0  0  0  0  0
    6.2860    0.4620   17.7590 N   0  0  0  0  0  0  0  0  0  0  0  0
    6.5700   -0.5870   18.5400 C   0  0  0  0  0  0  0  0  0  0  0  0
    5.9940   -0.8780   19.6970 N   0  0  0  0  0  0  0  0  0  0  0  0
    5.0490   -0.0100   20.0810 C   0  0  0  0  0  0  0  0  0  0  0  0
  1  2  1  0
  2  3  2  0
  1  4  1  0
  5  6  3  0
  7  8  1  0
 10  8  1  6
  9 10  1  0
 10 11  1  0
  2 12  1  0
 11 12  1  0
 12 13  1  0
  9 14  1  0
 13 14  1  0
 15 16  2  0
  6 17  1  0
 16 17  1  0
 17 18  2  0
 18 19  1  0
  4 20  1  0
 15 20  1  0
 19 20  2  0
  7 21  1  0
 21 22  2  0
 22 23  1  0
 23 24  2  0
 24 25  1  0
 21 26  1  0
 25 26  2  0
M  END
