x1002-x1380
     RDKit          3D

 17 18  0  0  0  0  0  0  0  0999 V2000
    6.1400   -2.5210   19.5740 C   0  0  0  0  0  0  0  0  0  0  0  0
    5.3330   -4.7550   19.7130 O   0  0  0  0  0  0  0  0  0  0  0  0
    5.9330   -3.8470   20.2680 C   0  0  0  0  0  0  0  0  0  0  0  0
    4.6890   -2.6400   25.5610 O   0  0  0  0  0  0  0  0  0  0  0  0
    5.8140   -3.1060   25.3890 C   0  0  0  0  0  0  0  0  0  0  0  0
    6.4590   -4.0290   21.5250 N   0  0  0  0  0  0  0  0  0  0  0  0
    5.9900   -5.1350   22.2410 C   0  0  0  0  0  0  0  0  0  0  0  0
    5.8860   -4.8920   23.6080 C   0  0  0  0  0  0  0  0  0  0  0  0
    6.2020   -3.4420   23.9400 C   0  0  0  0  0  0  0  0  0  0  0  0
    7.4040   -2.9500   23.4740 C   0  0  0  0  0  0  0  0  0  0  0  0
    7.4760   -3.1420   22.0770 C   0  0  0  0  0  0  0  0  0  0  0  0
    7.7540   -4.2710   26.4530 C   0  0  0  0  0  0  0  0  0  0  0  0
    7.3460   -5.3070   27.2430 C   0  0  0  0  0  0  0  0  0  0  0  0
    7.5190   -5.1180   28.7290 C   0  0  0  0  0  0  0  0  0  0  0  0
    6.0750   -4.7580   28.3260 C   0  0  0  0  0  0  0  0  0  0  0  0
    6.0170   -3.3370   27.7770 C   0  0  0  0  0  0  0  0  0  0  0  0
    6.6640   -3.3080   26.4720 N   0  0  0  0  0  0  0  0  0  0  0  0
  1  3  1  0
  2  3  2  0
  4  5  2  0
  3  6  1  0
  6  7  1  0
  7  8  1  0
  5  9  1  0
  8  9  1  0
  9 10  1  0
  6 11  1  0
 10 11  1  0
 12 13  1  0
 13 14  1  0
 14 15  1  0
 15 16  1  0
  5 17  1  0
 12 17  1  0
 16 17  1  0
M  END
