x1002-x1386
     RDKit          3D

 15 16  0  0  0  0  0  0  0  0999 V2000
    6.7460   -2.0950   18.5230 C   0  0  0  0  0  0  0  0  0  0  0  0
    5.5200   -3.7150   19.7850 O   0  0  0  0  0  0  0  0  0  0  0  0
    6.2950   -2.7410   19.7950 C   0  0  0  0  0  0  0  0  0  0  0  0
    9.8500   -2.3570   23.7280 C   0  0  0  0  0  0  0  0  0  0  0  0
    6.8150   -2.1670   20.9430 N   0  0  0  0  0  0  0  0  0  0  0  0
    7.9060   -1.3010   20.7970 C   0  0  0  0  0  0  0  0  0  0  0  0
    8.9720   -1.6430   21.6280 C   0  0  0  0  0  0  0  0  0  0  0  0
    8.6670   -2.0200   22.9160 N   0  0  0  0  0  0  0  0  0  0  0  0
    7.6210   -2.9200   23.1380 C   0  0  0  0  0  0  0  0  0  0  0  0
    6.5400   -2.8260   22.2380 C   0  0  0  0  0  0  0  0  0  0  0  0
   12.2560   -1.7970   22.9560 C   0  0  0  0  0  0  0  0  0  0  0  0
   10.9820   -1.4320   23.3870 C   0  0  0  0  0  0  0  0  0  0  0  0
   10.8180   -0.0760   23.4850 C   0  0  0  0  0  0  0  0  0  0  0  0
   12.2120    0.8070   23.0620 S   0  0  0  0  0  0  0  0  0  0  0  0
   13.0530   -0.6390   22.7370 C   0  0  0  0  0  0  0  0  0  0  0  0
  1  3  1  0
  2  3  2  0
  3  5  1  0
  5  6  1  0
  6  7  1  0
  4  8  1  0
  7  8  1  0
  8  9  1  0
  5 10  1  0
  9 10  1  0
  4 12  1  0
 11 12  1  0
 12 13  2  0
 13 14  1  0
 11 15  2  0
 14 15  1  0
M  END
