x1002-x0177
     RDKit          3D

 18 19  0  0  0  0  0  0  0  0999 V2000
   23.5950  -16.7930   25.6630 N   0  0  0  0  0  0  0  0  0  0  0  0
   24.5510  -17.7280   25.3760 C   0  0  0  0  0  0  0  0  0  0  0  0
   25.7000  -17.5780   25.7670 O   0  0  0  0  0  0  0  0  0  0  0  0
   22.8290  -21.9430   22.1300 C   0  0  0  0  0  0  0  0  0  0  0  0
   21.7300  -22.4640   22.3950 O   0  0  0  0  0  0  0  0  0  0  0  0
   23.5800  -22.2490   20.9040 N   0  0  0  0  0  0  0  0  0  0  0  0
   24.1470  -18.9340   24.5910 C   0  0  0  0  0  0  0  0  0  0  0  0
   22.7160  -19.1210   24.2370 C   0  0  0  0  0  0  0  0  0  0  0  0
   22.4400  -20.4600   23.9380 C   0  0  0  0  0  0  0  0  0  0  0  0
   23.4250  -20.9660   22.9880 N   0  0  0  0  0  0  0  0  0  0  0  0
   24.3070  -19.9470   22.3520 C   0  0  0  0  0  0  0  0  0  0  0  0
   24.8430  -19.0370   23.3010 C   0  0  0  0  0  0  0  0  0  0  0  0
   22.5460  -23.1040   18.6990 C   0  0  0  0  0  0  0  0  0  0  0  0
   21.8730  -24.0840   17.9220 C   0  0  0  0  0  0  0  0  0  0  0  0
   21.4260  -25.3400   18.3990 C   0  0  0  0  0  0  0  0  0  0  0  0
   21.7170  -25.5960   19.8780 C   0  0  0  0  0  0  0  0  0  0  0  0
   22.4310  -24.5630   20.7170 C   0  0  0  0  0  0  0  0  0  0  0  0
   22.8560  -23.2630   20.0590 C   0  0  0  0  0  0  0  0  0  0  0  0
  1  2  1  0
  2  3  2  0
  4  5  2  0
  4  6  1  0
  2  7  1  0
  7  8  1  0
  8  9  1  0
  4 10  1  0
  9 10  1  0
 10 11  1  0
  7 12  1  0
 11 12  1  0
 13 14  2  0
 14 15  1  0
 15 16  2  0
 16 17  1  0
  6 18  1  0
 13 18  1  0
 17 18  2  0
M  END
