x1002-x0874
     RDKit          3D

 11 12  0  0  0  0  0  0  0  0999 V2000
   10.1850    2.9380   22.8480 N   0  0  0  0  0  0  0  0  0  0  0  0
    9.3520    2.1710   22.0900 C   0  0  0  0  0  0  0  0  0  0  0  0
    8.7040    2.6420   21.1850 O   0  0  0  0  0  0  0  0  0  0  0  0
    9.1580    0.7160   22.2710 C   0  0  2  0  0  0  0  0  0  0  0  0
    8.0720    0.1250   23.1170 C   0  0  0  0  0  0  0  0  0  0  0  0
    8.5410   -1.2340   23.5930 C   0  0  0  0  0  0  0  0  0  0  0  0
    9.9620   -1.2410   23.6640 C   0  0  0  0  0  0  0  0  0  0  0  0
   10.2540   -0.0730   22.8900 C   0  0  0  0  0  0  0  0  0  0  0  0
   11.8070    0.2510   22.7770 C   0  0  0  0  0  0  0  0  0  0  0  0
   11.1790   -0.4180   23.1740 S   0  0  0  0  0  0  0  0  0  0  0  0
   12.7410   -0.6890   23.4630 C   0  0  0  0  0  0  0  0  0  0  0  0
  1  2  1  0
  2  3  2  0
  4  2  1  1
  4  5  1  0
  5  6  1  0
  6  7  1  0
  4  8  1  0
  7  8  2  0
  8  9  1  0
  7 10  1  0
  9 11  2  0
 10 11  1  0
M  END
