x1002-x0397
     RDKit          3D

 15 16  0  0  0  0  0  0  0  0999 V2000
    7.9760   -1.4550   20.9230 C   0  0  0  0  0  0  0  0  0  0  0  0
    7.0020   -2.1680   20.1040 N   0  0  0  0  0  0  0  0  0  0  0  0
    6.8720   -1.7250   18.7130 C   0  0  0  0  0  0  0  0  0  0  0  0
    3.7180    2.2120   19.3630 C   0  0  0  0  0  0  0  0  0  0  0  0
    6.1920   -3.2090   20.5500 C   0  0  0  0  0  0  0  0  0  0  0  0
    5.4610   -3.8870   19.8040 O   0  0  0  0  0  0  0  0  0  0  0  0
    6.2610   -3.4790   21.9040 N   0  0  0  0  0  0  0  0  0  0  0  0
    5.0670   -0.0240   19.4760 C   0  0  0  0  0  0  0  0  0  0  0  0
    6.1060   -0.4460   18.6540 C   0  0  0  0  0  0  0  0  0  0  0  0
    6.3800    0.4730   17.7270 N   0  0  0  0  0  0  0  0  0  0  0  0
    5.5130    1.5090   17.9350 O   0  0  0  0  0  0  0  0  0  0  0  0
    4.7210    1.2090   18.9890 C   0  0  0  0  0  0  0  0  0  0  0  0
    6.4600   -5.3330   23.3600 C   0  0  0  0  0  0  0  0  0  0  0  0
    5.7550   -4.7080   22.4470 C   0  0  0  0  0  0  0  0  0  0  0  0
    6.0630   -5.8280   21.8490 C   0  0  0  0  0  0  0  0  0  0  0  0
  1  2  1  0
  2  3  1  0
  2  5  1  0
  5  6  2  0
  5  7  1  0
  3  9  1  0
  8  9  1  0
  9 10  2  0
 10 11  1  0
  4 12  1  0
  8 12  2  0
 11 12  1  0
  7 14  1  0
 13 14  1  0
 13 15  1  0
 14 15  1  0
M  END
