x1002-x1375
     RDKit          3D

 18 19  0  0  0  0  0  0  0  0999 V2000
    5.7060   -4.5040   20.0430 O   0  0  0  0  0  0  0  0  0  0  0  0
    6.3550   -4.0220   20.9960 C   0  0  0  0  0  0  0  0  0  0  0  0
    7.5360   -3.1000   20.7570 C   0  0  0  0  0  0  0  0  0  0  0  0
    6.0810   -4.2670   22.3910 N   0  0  0  0  0  0  0  0  0  0  0  0
    2.3800   -6.8350   23.8500 O   0  0  0  0  0  0  0  0  0  0  0  0
    4.4010   -7.7510   24.9920 O   0  0  0  0  0  0  0  0  0  0  0  0
   10.3330   -5.1310   25.7980 F   0  0  0  0  0  0  0  0  0  0  0  0
    7.6580   -3.2840   24.0190 C   0  0  0  0  0  0  0  0  0  0  0  0
    8.8050   -3.5230   24.9400 C   0  0  0  0  0  0  0  0  0  0  0  0
    9.3450   -4.8050   25.0230 C   0  0  0  0  0  0  0  0  0  0  0  0
    8.8490   -5.8160   24.2750 C   0  0  0  0  0  0  0  0  0  0  0  0
    7.7920   -5.5990   23.4280 C   0  0  0  0  0  0  0  0  0  0  0  0
    7.1840   -4.3670   23.2860 C   0  0  0  0  0  0  0  0  0  0  0  0
    4.5520   -4.3290   24.1930 C   0  0  0  0  0  0  0  0  0  0  0  0
    4.7980   -4.7680   22.8880 C   0  0  2  0  0  0  0  0  0  0  0  0
    4.7360   -6.3140   22.8610 C   0  0  0  0  0  0  0  0  0  0  0  0
    3.7500   -6.6840   24.2830 S   0  0  0  0  0  0  0  0  0  0  0  0
    4.0050   -5.2200   25.0340 C   0  0  0  0  0  0  0  0  0  0  0  0
  1  2  2  0
  2  3  1  0
  2  4  1  0
  8  9  2  0
  7 10  1  0
  9 10  1  0
 10 11  2  0
 11 12  1  0
  4 13  1  0
  8 13  1  0
 12 13  2  0
 15  4  1  1
 14 15  1  0
 15 16  1  0
 17  5  1  0
  6 17  1  0
 16 17  1  0
 14 18  2  0
 17 18  1  0
M  END
