x1002-x0708
     RDKit          3D

 16 17  0  0  0  0  0  0  0  0999 V2000
    6.5720   -4.1680   21.2270 N   0  0  0  0  0  0  0  0  0  0  0  0
    6.8920   -2.1590   19.7560 C   0  0  0  0  0  0  0  0  0  0  0  0
    5.1800   -3.7880   19.3690 O   0  0  0  0  0  0  0  0  0  0  0  0
    6.1080   -3.4180   20.0730 C   0  0  0  0  0  0  0  0  0  0  0  0
    7.7450   -3.6520   21.7910 N   0  0  0  0  0  0  0  0  0  0  0  0
    6.5970   -2.9200   23.3400 O   0  0  0  0  0  0  0  0  0  0  0  0
    7.6280   -2.9320   22.6780 C   0  0  0  0  0  0  0  0  0  0  0  0
    8.8100   -2.0430   22.8890 C   0  0  0  0  0  0  0  0  0  0  0  0
   10.0450   -2.1540   22.2820 C   0  0  0  0  0  0  0  0  0  0  0  0
   10.9650   -1.2090   22.6210 C   0  0  0  0  0  0  0  0  0  0  0  0
   10.4220   -0.2970   23.5340 C   0  0  0  0  0  0  0  0  0  0  0  0
    8.7960   -0.7050   23.9400 S   0  0  0  0  0  0  0  0  0  0  0  0
   12.2980   -1.0500   22.1840 C   0  0  0  0  0  0  0  0  0  0  0  0
   13.0400    0.0220   22.6420 C   0  0  0  0  0  0  0  0  0  0  0  0
   12.5490    0.9630   23.5180 C   0  0  0  0  0  0  0  0  0  0  0  0
   11.1360    0.7850   24.0150 C   0  0  0  0  0  0  0  0  0  0  0  0
  1  4  1  0
  2  4  1  0
  3  4  2  0
  1  5  1  0
  5  7  1  0
  6  7  2  0
  7  8  1  0
  8  9  2  0
  9 10  1  0
 10 11  2  0
  8 12  1  0
 11 12  1  0
 10 13  1  0
 13 14  2  0
 14 15  1  0
 11 16  1  0
 15 16  2  0
M  END
