x1002-x0749
     RDKit          3D

 16 18  0  0  0  0  0  0  0  0999 V2000
    7.5250   -2.3120   20.2960 C   0  0  0  0  0  0  0  0  0  0  0  0
    6.1450   -4.2650   20.3820 O   0  0  0  0  0  0  0  0  0  0  0  0
    7.0490   -3.5950   20.9190 C   0  0  0  0  0  0  0  0  0  0  0  0
    7.6450   -3.9710   22.1430 N   0  0  0  0  0  0  0  0  0  0  0  0
    8.9150   -3.3410   22.7590 C   0  0  0  0  0  0  0  0  0  0  0  0
    8.9210   -4.6160   23.7070 C   0  0  0  0  0  0  0  0  0  0  0  0
    8.0580   -5.7420   23.7450 C   0  0  0  0  0  0  0  0  0  0  0  0
    6.7520   -5.6060   23.3810 C   0  0  0  0  0  0  0  0  0  0  0  0
    6.5520   -4.3100   23.0400 C   0  0  0  0  0  0  0  0  0  0  0  0
   10.0360   -4.9680   24.9610 S   0  0  0  0  0  0  0  0  0  0  0  0
   10.9030   -3.5210   24.5910 C   0  0  0  0  0  0  0  0  0  0  0  0
   10.2520   -2.8420   23.5290 C   0  0  0  0  0  0  0  0  0  0  0  0
   10.8750   -1.6120   23.1280 C   0  0  0  0  0  0  0  0  0  0  0  0
   12.1700   -1.1140   23.8250 C   0  0  0  0  0  0  0  0  0  0  0  0
   12.8190   -1.8890   24.9430 C   0  0  0  0  0  0  0  0  0  0  0  0
   12.0800   -3.1550   25.2930 C   0  0  0  0  0  0  0  0  0  0  0  0
  1  3  1  0
  2  3  2  0
  3  4  1  0
  4  5  1  0
  5  6  2  0
  6  7  1  0
  7  8  1  0
  4  9  1  0
  8  9  1  0
  6 10  1  0
 10 11  1  0
  5 12  1  0
 11 12  2  0
 12 13  1  0
 13 14  2  0
 14 15  1  0
 11 16  1  0
 15 16  2  0
M  END
