x1002-x1493
     RDKit          3D

 12 12  0  0  0  0  0  0  0  0999 V2000
    4.5510   -6.5030   25.7860 C   0  0  0  0  0  0  0  0  0  0  0  0
    6.2340   -5.0190   26.4660 O   0  0  0  0  0  0  0  0  0  0  0  0
    5.6300   -5.4890   25.5150 C   0  0  0  0  0  0  0  0  0  0  0  0
    5.6530   -4.2680   20.0080 O   0  0  0  0  0  0  0  0  0  0  0  0
    6.6240   -4.1390   20.7710 C   0  0  0  0  0  0  0  0  0  0  0  0
    7.5920   -2.9750   20.7480 C   0  0  0  0  0  0  0  0  0  0  0  0
    5.8810   -5.1270   24.1880 N   0  0  0  0  0  0  0  0  0  0  0  0
    6.8630   -4.1610   23.7220 C   0  0  0  0  0  0  0  0  0  0  0  0
    7.7290   -4.7610   22.8080 C   0  0  0  0  0  0  0  0  0  0  0  0
    6.9350   -5.1840   21.7600 N   0  0  0  0  0  0  0  0  0  0  0  0
    6.0340   -6.1990   22.0320 C   0  0  0  0  0  0  0  0  0  0  0  0
    5.2280   -5.8410   23.1140 C   0  0  0  0  0  0  0  0  0  0  0  0
  1  3  1  0
  2  3  2  0
  4  5  2  0
  5  6  1  0
  3  7  1  0
  7  8  1  0
  8  9  1  0
  5 10  1  0
  9 10  1  0
 10 11  1  0
  7 12  1  0
 11 12  1  0
M  END
