x1002-x0354
     RDKit          3D

 18 19  0  0  0  0  0  0  0  0999 V2000
   13.2510   -1.1000   22.5070 C   0  0  0  0  0  0  0  0  0  0  0  0
    7.5770   -2.0560   25.1420 O   0  0  0  0  0  0  0  0  0  0  0  0
    7.4190   -0.4780   27.2400 O   0  0  0  0  0  0  0  0  0  0  0  0
    8.5270   -1.3100   25.3780 C   0  0  0  0  0  0  0  0  0  0  0  0
    8.2200   -0.1560   26.3470 C   0  0  0  0  0  0  0  0  0  0  0  0
    5.5580    3.9000   31.0610 C   0  0  0  0  0  0  0  0  0  0  0  0
   11.9620   -1.1760   23.1590 N   0  0  0  0  0  0  0  0  0  0  0  0
   11.4240   -2.4530   23.2410 C   0  0  0  0  0  0  0  0  0  0  0  0
   10.2980   -2.6320   24.2470 C   0  0  0  0  0  0  0  0  0  0  0  0
    9.8150   -1.4570   24.8670 N   0  0  0  0  0  0  0  0  0  0  0  0
   10.7240   -0.3680   25.0940 C   0  0  0  0  0  0  0  0  0  0  0  0
   11.9330   -0.3970   24.3630 C   0  0  0  0  0  0  0  0  0  0  0  0
    7.5520    1.7810   28.1760 C   0  0  0  0  0  0  0  0  0  0  0  0
    7.0860    2.7140   29.0580 C   0  0  0  0  0  0  0  0  0  0  0  0
    5.9810    2.7950   30.1410 C   0  0  0  0  0  0  0  0  0  0  0  0
    5.4540    1.3260   29.9500 C   0  0  0  0  0  0  0  0  0  0  0  0
    6.0090    0.3170   28.9520 C   0  0  0  0  0  0  0  0  0  0  0  0
    7.0340    0.5290   28.0810 C   0  0  0  0  0  0  0  0  0  0  0  0
  2  4  2  0
  3  5  1  0
  4  5  1  0
  1  7  1  0
  7  8  1  0
  8  9  1  0
  4 10  1  0
  9 10  1  0
 10 11  1  0
  7 12  1  0
 11 12  1  0
 13 14  2  0
  6 15  1  0
 14 15  1  0
 15 16  2  0
 16 17  1  0
  3 18  1  0
 13 18  1  0
 17 18  2  0
M  END
