x1002-x0350
     RDKit          3D

 15 16  0  0  0  0  0  0  0  0999 V2000
    9.8670  -24.7810   -0.1850 C   0  0  0  0  0  0  0  0  0  0  0  0
    9.3750  -23.4650   -0.5970 N   0  0  0  0  0  0  0  0  0  0  0  0
    8.0010  -23.4310   -1.1280 C   0  0  0  0  0  0  0  0  0  0  0  0
   11.0330  -26.8900    4.2310 F   0  0  0  0  0  0  0  0  0  0  0  0
   11.3210  -26.0170    3.2540 C   0  0  0  0  0  0  0  0  0  0  0  0
   10.4660  -25.8340    2.0310 C   0  0  0  0  0  0  0  0  0  0  0  0
   10.7560  -24.9320    1.0240 C   0  0  0  0  0  0  0  0  0  0  0  0
   11.9200  -24.2040    1.2200 C   0  0  0  0  0  0  0  0  0  0  0  0
   12.7760  -24.3250    2.3370 C   0  0  0  0  0  0  0  0  0  0  0  0
   12.4720  -25.2360    3.3680 C   0  0  0  0  0  0  0  0  0  0  0  0
    7.7880  -20.9050   -1.6120 C   0  0  0  0  0  0  0  0  0  0  0  0
    7.2490  -22.0780   -1.1000 C   0  0  0  0  0  0  0  0  0  0  0  0
    5.9910  -21.8910   -0.5870 O   0  0  0  0  0  0  0  0  0  0  0  0
    5.7940  -20.5630   -0.8050 C   0  0  0  0  0  0  0  0  0  0  0  0
    6.9640  -19.8530   -1.4890 C   0  0  0  0  0  0  0  0  0  0  0  0
  1  2  1  0
  2  3  1  0
  4  5  1  0
  5  6  2  0
  1  7  1  0
  6  7  1  0
  7  8  2  0
  8  9  1  0
  5 10  1  0
  9 10  2  0
  3 12  1  0
 11 12  2  0
 12 13  1  0
 13 14  1  0
 11 15  1  0
 14 15  2  0
M  END
