x1012-x0691
     RDKit          3D

 19 20  0  0  0  0  0  0  0  0999 V2000
    3.9290   -6.8370   25.9220 O   0  0  0  0  0  0  0  0  0  0  0  0
    5.6180   -5.2190   26.8550 O   0  0  0  0  0  0  0  0  0  0  0  0
    5.6180   -4.4150   19.9060 O   0  0  0  0  0  0  0  0  0  0  0  0
    6.4440   -4.2540   20.7950 C   0  0  0  0  0  0  0  0  0  0  0  0
    7.4150   -3.2430   20.7500 C   0  0  0  0  0  0  0  0  0  0  0  0
    3.2450   -0.6310   25.9610 F   0  0  0  0  0  0  0  0  0  0  0  0
    4.6120   -5.5630   25.8740 S   0  0  0  0  0  0  0  0  0  0  0  0
    2.8720   -1.9150   25.8880 C   0  0  0  0  0  0  0  0  0  0  0  0
    3.8370   -2.9240   25.9070 C   0  0  0  0  0  0  0  0  0  0  0  0
    3.4360   -4.2550   25.8390 C   0  0  0  0  0  0  0  0  0  0  0  0
    2.0730   -4.5720   25.7530 C   0  0  0  0  0  0  0  0  0  0  0  0
    1.1230   -3.5540   25.7340 C   0  0  0  0  0  0  0  0  0  0  0  0
    1.5170   -2.2290   25.8000 C   0  0  0  0  0  0  0  0  0  0  0  0
    6.4900   -5.0380   21.9470 N   0  0  0  0  0  0  0  0  0  0  0  0
    5.5030   -6.1190   22.1120 C   0  0  0  0  0  0  0  0  0  0  0  0
    4.5790   -5.7960   23.1210 C   0  0  0  0  0  0  0  0  0  0  0  0
    5.3390   -5.3880   24.3570 N   0  0  0  0  0  0  0  0  0  0  0  0
    6.1170   -4.2500   24.1990 C   0  0  0  0  0  0  0  0  0  0  0  0
    7.1570   -4.6100   23.1800 C   0  0  0  0  0  0  0  0  0  0  0  0
  3  4  2  0
  4  5  1  0
  1  7  2  0
  2  7  2  0
  6  8  1  0
  8  9  2  0
  7 10  1  0
  9 10  1  0
 10 11  2  0
 11 12  1  0
  8 13  1  0
 12 13  2  0
  4 14  1  0
 14 15  1  0
 15 16  1  0
  7 17  1  0
 16 17  1  0
 17 18  1  0
 14 19  1  0
 18 19  1  0
M  END
