x1012-x0874
     RDKit          3D

 11 12  0  0  0  0  0  0  0  0999 V2000
    9.9650    3.3810   22.2320 N   0  0  0  0  0  0  0  0  0  0  0  0
    9.2440    2.1920   22.1390 C   0  0  0  0  0  0  0  0  0  0  0  0
    8.6860    1.9080   21.0840 O   0  0  0  0  0  0  0  0  0  0  0  0
    9.2090    1.3270   23.2240 C   0  0  1  0  0  0  0  0  0  0  0  0
    8.1970    0.3170   23.3000 C   0  0  0  0  0  0  0  0  0  0  0  0
    8.7370   -0.9820   23.0230 C   0  0  0  0  0  0  0  0  0  0  0  0
   10.1260   -0.8670   22.9380 C   0  0  0  0  0  0  0  0  0  0  0  0
   10.4030    0.4250   23.0650 C   0  0  0  0  0  0  0  0  0  0  0  0
   11.7420    0.7780   23.0230 C   0  0  0  0  0  0  0  0  0  0  0  0
   11.5640   -1.7730   22.7320 S   0  0  0  0  0  0  0  0  0  0  0  0
   12.5460   -0.3200   22.8440 C   0  0  0  0  0  0  0  0  0  0  0  0
  1  2  1  0
  2  3  2  0
  4  2  1  6
  4  5  1  0
  5  6  1  0
  6  7  1  0
  4  8  1  0
  7  8  2  0
  8  9  1  0
  7 10  1  0
  9 11  2  0
 10 11  1  0
M  END
