x1012-x1119
     RDKit          3D

 17 18  0  0  0  0  0  0  0  0999 V2000
   20.8640    7.8240   22.5280 N   0  0  0  0  0  0  0  0  0  0  0  0
   22.6270    2.1760   25.0350 O   0  0  0  0  0  0  0  0  0  0  0  0
   23.7250    3.6330   26.8380 N   0  0  0  0  0  0  0  0  0  0  0  0
   24.8780    3.1070   24.6480 O   0  0  0  0  0  0  0  0  0  0  0  0
   23.5550    3.2380   25.2070 S   0  0  0  0  0  0  0  0  0  0  0  0
   21.4950    6.7520   23.1650 C   0  0  0  0  0  0  0  0  0  0  0  0
   22.5060    6.0400   22.5170 C   0  0  0  0  0  0  0  0  0  0  0  0
   23.1370    4.9720   23.1490 C   0  0  0  0  0  0  0  0  0  0  0  0
   22.7530    4.6120   24.4370 C   0  0  0  0  0  0  0  0  0  0  0  0
   21.7460    5.3100   25.1070 C   0  0  0  0  0  0  0  0  0  0  0  0
   21.1220    6.3810   24.4620 C   0  0  0  0  0  0  0  0  0  0  0  0
   24.7920    4.8160   28.4840 N   0  0  0  0  0  0  0  0  0  0  0  0
   25.7050    5.7350   28.8770 C   0  0  0  0  0  0  0  0  0  0  0  0
   26.5200    6.4310   28.0000 C   0  0  0  0  0  0  0  0  0  0  0  0
   26.3980    6.1790   26.6390 C   0  0  0  0  0  0  0  0  0  0  0  0
   25.4660    5.2410   26.2020 C   0  0  0  0  0  0  0  0  0  0  0  0
   24.7000    4.5980   27.1580 C   0  0  0  0  0  0  0  0  0  0  0  0
  2  5  2  0
  5  3  1  0
  4  5  2  0
  1  6  1  0
  6  7  2  0
  7  8  1  0
  5  9  1  0
  8  9  2  0
  9 10  1  0
  6 11  1  0
 10 11  2  0
 12 13  2  0
 13 14  1  0
 14 15  2  0
 15 16  1  0
  3 17  1  0
 12 17  1  0
 16 17  2  0
M  END
