x1012-x0350
     RDKit          3D

 15 16  0  0  0  0  0  0  0  0999 V2000
    9.9420  -24.6200   -0.1150 C   0  0  0  0  0  0  0  0  0  0  0  0
    9.0620  -23.5460   -0.0890 N   0  0  0  0  0  0  0  0  0  0  0  0
    8.0130  -23.3900   -1.0970 C   0  0  0  0  0  0  0  0  0  0  0  0
   10.9710  -26.9660    4.0990 F   0  0  0  0  0  0  0  0  0  0  0  0
   11.3090  -26.0440    3.1820 C   0  0  0  0  0  0  0  0  0  0  0  0
   10.5030  -25.8200    2.0570 C   0  0  0  0  0  0  0  0  0  0  0  0
   10.8060  -24.8760    1.0910 C   0  0  0  0  0  0  0  0  0  0  0  0
   11.9790  -24.1440    1.2620 C   0  0  0  0  0  0  0  0  0  0  0  0
   12.8040  -24.3640    2.3850 C   0  0  0  0  0  0  0  0  0  0  0  0
   12.4680  -25.3080    3.3470 C   0  0  0  0  0  0  0  0  0  0  0  0
    7.7950  -20.7980   -1.6360 C   0  0  0  0  0  0  0  0  0  0  0  0
    7.3690  -22.0380   -1.1330 C   0  0  0  0  0  0  0  0  0  0  0  0
    6.1030  -21.9460   -0.5840 O   0  0  0  0  0  0  0  0  0  0  0  0
    5.7150  -20.6590   -0.7220 C   0  0  0  0  0  0  0  0  0  0  0  0
    6.7820  -19.8420   -1.4070 C   0  0  0  0  0  0  0  0  0  0  0  0
  1  2  1  0
  2  3  1  0
  4  5  1  0
  5  6  2  0
  1  7  1  0
  6  7  1  0
  7  8  2  0
  8  9  1  0
  5 10  1  0
  9 10  2  0
  3 12  1  0
 11 12  2  0
 12 13  1  0
 13 14  1  0
 11 15  1  0
 14 15  2  0
M  END
