x1012-x0395
     RDKit          3D

 14 15  0  0  0  0  0  0  0  0999 V2000
    9.4660   -5.2420   26.5190 C   0  0  0  0  0  0  0  0  0  0  0  0
    8.9790   -1.2060   23.0320 C   0  0  0  0  0  0  0  0  0  0  0  0
   13.4690   -1.6150   21.6510 F   0  0  0  0  0  0  0  0  0  0  0  0
    9.0670   -3.9830   25.7480 C   0  0  0  0  0  0  0  0  0  0  0  0
    8.0560   -3.1000   26.0890 N   0  0  0  0  0  0  0  0  0  0  0  0
    7.9560   -2.0660   25.1700 N   0  0  0  0  0  0  0  0  0  0  0  0
    8.8380   -2.1620   24.1900 C   0  0  0  0  0  0  0  0  0  0  0  0
    9.8750   -3.5250   24.3160 S   0  0  0  0  0  0  0  0  0  0  0  0
   10.8130    0.1920   24.0200 C   0  0  0  0  0  0  0  0  0  0  0  0
   11.7560    1.0330   23.4350 C   0  0  0  0  0  0  0  0  0  0  0  0
   12.7570    0.3150   22.7990 C   0  0  0  0  0  0  0  0  0  0  0  0
   12.4910   -0.9440   22.2750 C   0  0  0  0  0  0  0  0  0  0  0  0
   11.2250   -1.5280   22.3700 C   0  0  0  0  0  0  0  0  0  0  0  0
   10.2270   -0.5930   22.9400 N   0  0  0  0  0  0  0  0  0  0  0  0
  1  4  1  0
  4  5  2  0
  5  6  1  0
  2  7  1  0
  6  7  2  0
  4  8  1  0
  7  8  1  0
  9 10  1  0
 10 11  1  0
  3 12  1  0
 11 12  2  0
 12 13  1  0
  2 14  1  0
  9 14  1  0
 13 14  1  0
M  END
