
     RDKit          3D

 15 16  0  0  0  0  0  0  0  0999 V2000
    9.8900    1.5270   21.3460 N   0  0  0  0  0  0  0  0  0  0  0  0
    9.7510    0.5640   21.9590 C   0  0  0  0  0  0  0  0  0  0  0  0
    7.3000   -5.8000   25.4420 O   0  0  0  0  0  0  0  0  0  0  0  0
    9.5840   -0.5840   22.7540 C   0  0  0  0  0  0  0  0  0  0  0  0
   10.2010   -1.7280   22.3370 N   0  0  0  0  0  0  0  0  0  0  0  0
    8.8780   -0.4790   23.9400 C   0  0  0  0  0  0  0  0  0  0  0  0
    9.5290   -3.9700   25.2640 N   0  0  0  0  0  0  0  0  0  0  0  0
    8.8070   -1.5850   24.7810 C   0  0  0  0  0  0  0  0  0  0  0  0
    9.4490   -2.7910   24.4310 C   0  0  0  0  0  0  0  0  0  0  0  0
   10.1230   -2.7850   23.1640 C   0  0  0  0  0  0  0  0  0  0  0  0
    9.8940   -5.2910   24.6800 C   0  0  0  0  0  0  0  0  0  0  0  0
    8.9080   -5.8040   23.6240 C   0  0  0  0  0  0  0  0  0  0  0  0
    7.4420   -5.5890   24.0410 C   0  0  0  0  0  0  0  0  0  0  0  0
    7.2860   -4.6680   26.2770 C   0  0  0  0  0  0  0  0  0  0  0  0
    8.7010   -4.0730   26.4970 C   0  0  0  0  0  0  0  0  0  0  0  0
  1  2  3  0
  2  4  1  0
  3 13  1  0
  3 14  1  0
  4  5  2  0
  4  6  1  0
  5 10  1  0
  6  8  2  0
  7  9  1  0
  7 11  1  0
  7 15  1  0
  8  9  1  0
  9 10  2  0
 11 12  1  0
 12 13  1  0
 14 15  1  0
M  END
