x1086-x0887
     RDKit          3D

 13 13  0  0  0  0  0  0  0  0999 V2000
    5.7700    3.4530   -7.1750 N   0  0  0  0  0  0  0  0  0  0  0  0
    4.1800   -1.5780   -9.1420 C   0  0  0  0  0  0  0  0  0  0  0  0
    4.4600    2.1810   -5.8700 O   0  0  0  0  0  0  0  0  0  0  0  0
    6.8060    1.5580   -5.7570 O   0  0  0  0  0  0  0  0  0  0  0  0
    5.4240    0.9430   -8.0110 C   0  0  0  0  0  0  0  0  0  0  0  0
    8.1870   -3.9060   -7.9870 F   0  0  0  0  0  0  0  0  0  0  0  0
    5.6520    1.9300   -6.5290 S   0  0  0  0  0  0  0  0  0  0  0  0
    5.5430   -1.5580   -8.5140 C   0  0  0  0  0  0  0  0  0  0  0  0
    6.1160   -0.3930   -7.9690 C   0  0  0  0  0  0  0  0  0  0  0  0
    7.3860   -0.4590   -7.3790 C   0  0  0  0  0  0  0  0  0  0  0  0
    8.0960   -1.6430   -7.3540 C   0  0  0  0  0  0  0  0  0  0  0  0
    7.5280   -2.7680   -7.9340 C   0  0  0  0  0  0  0  0  0  0  0  0
    6.2720   -2.7410   -8.4910 C   0  0  0  0  0  0  0  0  0  0  0  0
  7  1  1  0
  3  7  2  0
  4  7  2  0
  5  7  1  0
  2  8  1  0
  5  9  1  0
  8  9  2  0
  9 10  1  0
 10 11  2  0
  6 12  1  0
 11 12  1  0
  8 13  1  0
 12 13  2  0
M  END
