x1086-x1412
     RDKit          3D

 13 13  0  0  0  0  0  0  0  0999 V2000
    5.7810    3.4790   -7.2740 N   0  0  0  0  0  0  0  0  0  0  0  0
    4.0880   -1.4670   -9.3180 C   0  0  0  0  0  0  0  0  0  0  0  0
    4.4370    2.2320   -5.9140 O   0  0  0  0  0  0  0  0  0  0  0  0
    6.7680    1.5510   -5.8530 O   0  0  0  0  0  0  0  0  0  0  0  0
    5.3210    1.0000   -8.0770 C   0  0  0  0  0  0  0  0  0  0  0  0
    7.9850   -3.8770   -8.0520 F   0  0  0  0  0  0  0  0  0  0  0  0
    5.6140    1.9740   -6.5990 S   0  0  0  0  0  0  0  0  0  0  0  0
    5.4160   -1.4870   -8.6400 C   0  0  0  0  0  0  0  0  0  0  0  0
    5.9820   -0.3410   -8.0440 C   0  0  0  0  0  0  0  0  0  0  0  0
    7.2150   -0.4390   -7.4070 C   0  0  0  0  0  0  0  0  0  0  0  0
    7.8820   -1.6310   -7.3830 C   0  0  0  0  0  0  0  0  0  0  0  0
    7.3390   -2.7340   -8.0060 C   0  0  0  0  0  0  0  0  0  0  0  0
    6.1180   -2.6810   -8.6140 C   0  0  0  0  0  0  0  0  0  0  0  0
  7  1  1  0
  3  7  2  0
  4  7  2  0
  5  7  1  0
  2  8  1  0
  5  9  1  0
  8  9  2  0
  9 10  1  0
 10 11  2  0
  6 12  1  0
 11 12  1  0
  8 13  1  0
 12 13  2  0
M  END
