x1086-x0981
     RDKit          3D

 15 14  0  0  0  0  0  0  0  0999 V2000
    1.1820   -8.7520   21.2650 C   0  0  0  0  0  0  0  0  0  0  0  0
    2.5980   -7.2080   22.6950 N   0  0  0  0  0  0  0  0  0  0  0  0
    0.3240   -6.6890   22.1630 O   0  0  0  0  0  0  0  0  0  0  0  0
    1.2800   -7.4580   22.0730 C   0  0  0  0  0  0  0  0  0  0  0  0
    2.3930   -8.3390   26.2090 N   0  0  0  0  0  0  0  0  0  0  0  0
    4.0630   -8.2020   24.6880 O   0  0  0  0  0  0  0  0  0  0  0  0
    2.9420   -6.0840   23.5870 C   0  0  1  0  0  0  0  0  0  0  0  0
    5.1980   -6.3030   22.4790 N   0  0  0  0  0  0  0  0  0  0  0  0
    4.7280   -4.4260   23.6800 O   0  0  0  0  0  0  0  0  0  0  0  0
    2.7970   -6.3700   24.9630 C   0  0  0  0  0  0  0  0  0  0  0  0
    3.1330   -7.6900   25.2650 C   0  0  0  0  0  0  0  0  0  0  0  0
    4.3590   -5.5250   23.2600 C   0  0  0  0  0  0  0  0  0  0  0  0
    6.5310   -5.8460   22.1640 C   0  0  0  0  0  0  0  0  0  0  0  0
    6.3460   -4.7730   21.3230 C   0  0  0  0  0  0  0  0  0  0  0  0
    5.6270   -4.9260   20.1730 C   0  0  0  0  0  0  0  0  0  0  0  0
  1  4  1  0
  2  4  1  0
  3  4  2  0
  2  7  1  0
  7 10  1  1
  5 11  1  0
  6 11  2  0
 10 11  1  0
  7 12  1  0
  8 12  1  0
  9 12  2  0
  8 13  1  0
 13 14  1  0
 14 15  2  3
M  END
