x1086-x0769
     RDKit          3D

 19 20  0  0  0  0  0  0  0  0999 V2000
    5.7880   -5.0980   26.8910 O   0  0  0  0  0  0  0  0  0  0  0  0
    3.9310   -6.4970   25.9520 O   0  0  0  0  0  0  0  0  0  0  0  0
    5.5130   -4.5820   19.8930 O   0  0  0  0  0  0  0  0  0  0  0  0
    6.3190   -4.2200   20.7610 C   0  0  0  0  0  0  0  0  0  0  0  0
    6.9840   -2.8430   20.6690 C   0  0  0  0  0  0  0  0  0  0  0  0
    5.6220   -2.4700   26.2080 F   0  0  0  0  0  0  0  0  0  0  0  0
    4.7520   -5.3110   25.9090 S   0  0  0  0  0  0  0  0  0  0  0  0
    4.2960   -2.6110   26.1010 C   0  0  0  0  0  0  0  0  0  0  0  0
    3.7210   -3.8940   25.9500 C   0  0  0  0  0  0  0  0  0  0  0  0
    2.3210   -4.0040   25.8400 C   0  0  0  0  0  0  0  0  0  0  0  0
    1.5140   -2.8680   25.8840 C   0  0  0  0  0  0  0  0  0  0  0  0
    2.0920   -1.6180   26.0360 C   0  0  0  0  0  0  0  0  0  0  0  0
    3.4670   -1.4800   26.1420 C   0  0  0  0  0  0  0  0  0  0  0  0
    6.6740   -5.0340   21.8300 N   0  0  0  0  0  0  0  0  0  0  0  0
    5.7950   -6.1770   22.1030 C   0  0  0  0  0  0  0  0  0  0  0  0
    4.7680   -5.8210   23.2010 C   0  0  0  0  0  0  0  0  0  0  0  0
    5.4850   -5.2630   24.3880 N   0  0  0  0  0  0  0  0  0  0  0  0
    6.2950   -4.0690   24.0540 C   0  0  0  0  0  0  0  0  0  0  0  0
    7.3260   -4.5060   23.0340 C   0  0  0  0  0  0  0  0  0  0  0  0
  3  4  2  0
  4  5  1  0
  1  7  2  0
  2  7  2  0
  6  8  1  0
  7  9  1  0
  8  9  2  0
  9 10  1  0
 10 11  2  0
 11 12  1  0
  8 13  1  0
 12 13  2  0
  4 14  1  0
 14 15  1  0
 15 16  1  0
  7 17  1  0
 16 17  1  0
 17 18  1  0
 14 19  1  0
 18 19  1  0
M  END
