x1086-x1348
     RDKit          3D

 13 13  0  0  0  0  0  0  0  0999 V2000
    5.7660    3.4610   -7.1810 N   0  0  0  0  0  0  0  0  0  0  0  0
    4.1820   -1.5660   -9.1380 C   0  0  0  0  0  0  0  0  0  0  0  0
    4.4540    2.1740   -5.8740 O   0  0  0  0  0  0  0  0  0  0  0  0
    6.7970    1.5580   -5.7700 O   0  0  0  0  0  0  0  0  0  0  0  0
    5.4230    0.9390   -8.0130 C   0  0  0  0  0  0  0  0  0  0  0  0
    8.1820   -3.9050   -7.9900 F   0  0  0  0  0  0  0  0  0  0  0  0
    5.6440    1.9370   -6.5370 S   0  0  0  0  0  0  0  0  0  0  0  0
    5.5460   -1.5510   -8.5110 C   0  0  0  0  0  0  0  0  0  0  0  0
    6.1200   -0.3900   -7.9660 C   0  0  0  0  0  0  0  0  0  0  0  0
    7.3910   -0.4590   -7.3770 C   0  0  0  0  0  0  0  0  0  0  0  0
    8.0990   -1.6430   -7.3540 C   0  0  0  0  0  0  0  0  0  0  0  0
    7.5270   -2.7670   -7.9340 C   0  0  0  0  0  0  0  0  0  0  0  0
    6.2700   -2.7390   -8.4890 C   0  0  0  0  0  0  0  0  0  0  0  0
  7  1  1  0
  3  7  2  0
  4  7  2  0
  5  7  1  0
  2  8  1  0
  5  9  1  0
  8  9  2  0
  9 10  1  0
 10 11  2  0
  6 12  1  0
 11 12  1  0
  8 13  1  0
 12 13  2  0
M  END
