x1086-x1458
     RDKit          3D

 16 16  0  0  0  0  0  0  0  0999 V2000
    7.2180   -3.3960   26.6580 N   0  0  0  0  0  0  0  0  0  0  0  0
    8.8560   -5.3420   26.7410 C   0  0  0  0  0  0  0  0  0  0  0  0
    5.1600   -3.4220   25.6240 O   0  0  0  0  0  0  0  0  0  0  0  0
    7.7170   -4.5760   27.4180 C   0  0  0  0  0  0  0  0  0  0  0  0
    5.3650   -4.8660   19.7040 O   0  0  0  0  0  0  0  0  0  0  0  0
    6.5850   -5.5470   27.7570 C   0  0  0  0  0  0  0  0  0  0  0  0
    7.7980   -2.0880   26.9630 C   0  0  0  0  0  0  0  0  0  0  0  0
    6.3740   -3.6360   25.5610 C   0  0  0  0  0  0  0  0  0  0  0  0
    5.9090   -3.9450   20.2850 C   0  0  0  0  0  0  0  0  0  0  0  0
    5.8980   -2.6690   19.7360 C   0  0  0  0  0  0  0  0  0  0  0  0
    6.5590   -4.1550   21.4860 N   0  0  0  0  0  0  0  0  0  0  0  0
    7.6080   -3.3020   22.0380 C   0  0  0  0  0  0  0  0  0  0  0  0
    7.3450   -2.9530   23.3520 C   0  0  0  0  0  0  0  0  0  0  0  0
    6.9910   -4.1610   24.2560 C   0  0  0  0  0  0  0  0  0  0  0  0
    6.0450   -5.1620   23.6000 C   0  0  0  0  0  0  0  0  0  0  0  0
    6.3910   -5.4290   22.1500 C   0  0  0  0  0  0  0  0  0  0  0  0
  1  4  1  0
  2  4  1  0
  4  6  1  0
  1  7  1  0
  1  8  1  0
  3  8  2  0
  5  9  2  0
  9 10  1  0
  9 11  1  0
 11 12  1  0
 12 13  1  0
  8 14  1  0
 13 14  1  0
 14 15  1  0
 11 16  1  0
 15 16  1  0
M  END
