x1086-x0749
     RDKit          3D

 13 13  0  0  0  0  0  0  0  0999 V2000
    5.7670    3.4470   -7.1760 N   0  0  0  0  0  0  0  0  0  0  0  0
    4.1850   -1.5750   -9.1470 C   0  0  0  0  0  0  0  0  0  0  0  0
    4.4590    2.1700   -5.8680 O   0  0  0  0  0  0  0  0  0  0  0  0
    6.8090    1.5490   -5.7610 O   0  0  0  0  0  0  0  0  0  0  0  0
    5.4250    0.9390   -8.0090 C   0  0  0  0  0  0  0  0  0  0  0  0
    8.1890   -3.9030   -7.9930 F   0  0  0  0  0  0  0  0  0  0  0  0
    5.6520    1.9260   -6.5290 S   0  0  0  0  0  0  0  0  0  0  0  0
    5.5480   -1.5570   -8.5170 C   0  0  0  0  0  0  0  0  0  0  0  0
    6.1170   -0.3950   -7.9690 C   0  0  0  0  0  0  0  0  0  0  0  0
    7.3870   -0.4610   -7.3770 C   0  0  0  0  0  0  0  0  0  0  0  0
    8.0990   -1.6430   -7.3540 C   0  0  0  0  0  0  0  0  0  0  0  0
    7.5330   -2.7670   -7.9380 C   0  0  0  0  0  0  0  0  0  0  0  0
    6.2770   -2.7400   -8.4950 C   0  0  0  0  0  0  0  0  0  0  0  0
  7  1  1  0
  3  7  2  0
  4  7  2  0
  5  7  1  0
  2  8  1  0
  5  9  1  0
  8  9  2  0
  9 10  1  0
 10 11  2  0
  6 12  1  0
 11 12  1  0
  8 13  1  0
 12 13  2  0
M  END
