x1086-x1235
     RDKit          3D

 13 13  0  0  0  0  0  0  0  0999 V2000
    5.7820    3.4350   -7.2650 N   0  0  0  0  0  0  0  0  0  0  0  0
    4.1790   -1.5890   -9.1490 C   0  0  0  0  0  0  0  0  0  0  0  0
    4.4550    2.1990   -5.8880 O   0  0  0  0  0  0  0  0  0  0  0  0
    6.7970    1.5560   -5.7870 O   0  0  0  0  0  0  0  0  0  0  0  0
    5.4040    0.9270   -8.0190 C   0  0  0  0  0  0  0  0  0  0  0  0
    8.1990   -3.8960   -7.9950 F   0  0  0  0  0  0  0  0  0  0  0  0
    5.6440    1.9360   -6.5560 S   0  0  0  0  0  0  0  0  0  0  0  0
    5.5430   -1.5660   -8.5200 C   0  0  0  0  0  0  0  0  0  0  0  0
    6.1090   -0.3970   -7.9730 C   0  0  0  0  0  0  0  0  0  0  0  0
    7.3770   -0.4540   -7.3800 C   0  0  0  0  0  0  0  0  0  0  0  0
    8.0930   -1.6320   -7.3560 C   0  0  0  0  0  0  0  0  0  0  0  0
    7.5320   -2.7600   -7.9400 C   0  0  0  0  0  0  0  0  0  0  0  0
    6.2760   -2.7420   -8.4980 C   0  0  0  0  0  0  0  0  0  0  0  0
  7  1  1  0
  3  7  2  0
  4  7  2  0
  5  7  1  0
  2  8  1  0
  5  9  1  0
  8  9  2  0
  9 10  1  0
 10 11  2  0
  6 12  1  0
 11 12  1  0
  8 13  1  0
 12 13  2  0
M  END
