x1086-x1012
     RDKit          3D

 13 13  0  0  0  0  0  0  0  0999 V2000
    5.7760    3.4840   -7.2610 N   0  0  0  0  0  0  0  0  0  0  0  0
    4.0900   -1.4790   -9.3310 C   0  0  0  0  0  0  0  0  0  0  0  0
    4.4360    2.2420   -5.9020 O   0  0  0  0  0  0  0  0  0  0  0  0
    6.7670    1.5620   -5.8460 O   0  0  0  0  0  0  0  0  0  0  0  0
    5.3150    1.0070   -8.0660 C   0  0  0  0  0  0  0  0  0  0  0  0
    8.0070   -3.8660   -8.0530 F   0  0  0  0  0  0  0  0  0  0  0  0
    5.6110    1.9770   -6.5890 S   0  0  0  0  0  0  0  0  0  0  0  0
    5.4200   -1.4850   -8.6420 C   0  0  0  0  0  0  0  0  0  0  0  0
    5.9770   -0.3380   -8.0390 C   0  0  0  0  0  0  0  0  0  0  0  0
    7.2080   -0.4350   -7.3940 C   0  0  0  0  0  0  0  0  0  0  0  0
    7.8870   -1.6200   -7.3720 C   0  0  0  0  0  0  0  0  0  0  0  0
    7.3550   -2.7290   -8.0060 C   0  0  0  0  0  0  0  0  0  0  0  0
    6.1350   -2.6790   -8.6200 C   0  0  0  0  0  0  0  0  0  0  0  0
  7  1  1  0
  3  7  2  0
  4  7  2  0
  5  7  1  0
  2  8  1  0
  5  9  1  0
  8  9  2  0
  9 10  1  0
 10 11  2  0
  6 12  1  0
 11 12  1  0
  8 13  1  0
 12 13  2  0
M  END
