x1086-x1093
     RDKit          3D

 13 13  0  0  0  0  0  0  0  0999 V2000
    5.7640    3.4930   -7.1840 N   0  0  0  0  0  0  0  0  0  0  0  0
    4.0970   -1.4670   -9.3310 C   0  0  0  0  0  0  0  0  0  0  0  0
    4.4470    2.2060   -5.8730 O   0  0  0  0  0  0  0  0  0  0  0  0
    6.7820    1.5490   -5.8190 O   0  0  0  0  0  0  0  0  0  0  0  0
    5.3330    1.0120   -8.0560 C   0  0  0  0  0  0  0  0  0  0  0  0
    7.9930   -3.8710   -8.0570 F   0  0  0  0  0  0  0  0  0  0  0  0
    5.6210    1.9630   -6.5620 S   0  0  0  0  0  0  0  0  0  0  0  0
    5.4250   -1.4790   -8.6410 C   0  0  0  0  0  0  0  0  0  0  0  0
    5.9870   -0.3360   -8.0360 C   0  0  0  0  0  0  0  0  0  0  0  0
    7.2170   -0.4390   -7.3940 C   0  0  0  0  0  0  0  0  0  0  0  0
    7.8870   -1.6310   -7.3730 C   0  0  0  0  0  0  0  0  0  0  0  0
    7.3480   -2.7310   -8.0080 C   0  0  0  0  0  0  0  0  0  0  0  0
    6.1310   -2.6750   -8.6220 C   0  0  0  0  0  0  0  0  0  0  0  0
  7  1  1  0
  3  7  2  0
  4  7  2  0
  5  7  1  0
  2  8  1  0
  5  9  1  0
  8  9  2  0
  9 10  1  0
 10 11  2  0
  6 12  1  0
 11 12  1  0
  8 13  1  0
 12 13  2  0
M  END
