x1086-x0397
     RDKit          3D

 15 16  0  0  0  0  0  0  0  0999 V2000
    7.9610   -1.4660   20.9100 C   0  0  0  0  0  0  0  0  0  0  0  0
    7.0770   -2.1560   20.0860 N   0  0  0  0  0  0  0  0  0  0  0  0
    6.9160   -1.6720   18.6980 C   0  0  0  0  0  0  0  0  0  0  0  0
    3.7040    2.2120   19.3640 C   0  0  0  0  0  0  0  0  0  0  0  0
    6.1950   -3.2280   20.5620 C   0  0  0  0  0  0  0  0  0  0  0  0
    5.4620   -3.9030   19.8240 O   0  0  0  0  0  0  0  0  0  0  0  0
    6.2590   -3.4560   21.9220 N   0  0  0  0  0  0  0  0  0  0  0  0
    5.0940    0.0030   19.4650 C   0  0  0  0  0  0  0  0  0  0  0  0
    6.1290   -0.4040   18.6330 C   0  0  0  0  0  0  0  0  0  0  0  0
    6.3720    0.5130   17.6950 N   0  0  0  0  0  0  0  0  0  0  0  0
    5.4890    1.5360   17.9120 O   0  0  0  0  0  0  0  0  0  0  0  0
    4.7200    1.2260   18.9790 C   0  0  0  0  0  0  0  0  0  0  0  0
    6.4680   -5.3410   23.3590 C   0  0  0  0  0  0  0  0  0  0  0  0
    5.7190   -4.6560   22.4910 C   0  0  0  0  0  0  0  0  0  0  0  0
    6.0740   -5.9120   21.8810 C   0  0  0  0  0  0  0  0  0  0  0  0
  1  2  1  0
  2  3  1  0
  2  5  1  0
  5  6  2  0
  5  7  1  0
  3  9  1  0
  8  9  1  0
  9 10  2  0
 10 11  1  0
  4 12  1  0
  8 12  2  0
 11 12  1  0
  7 14  1  0
 13 14  1  0
 13 15  1  0
 14 15  1  0
M  END
