x1086-x0336
     RDKit          3D

 15 15  0  0  0  0  0  0  0  0999 V2000
    5.3340  -29.9990   10.8940 C   0  0  0  0  0  0  0  0  0  0  0  0
    4.9190  -29.8480    9.4260 C   0  0  0  0  0  0  0  0  0  0  0  0
    4.8320  -30.8300    8.6960 O   0  0  0  0  0  0  0  0  0  0  0  0
    4.6490  -28.5550    9.0060 N   0  0  0  0  0  0  0  0  0  0  0  0
    5.0230  -27.3130    9.7110 C   0  0  0  0  0  0  0  0  0  0  0  0
    1.4170  -22.5690    9.1370 S   0  0  0  0  0  0  0  0  0  0  0  0
    1.8240  -21.5670   10.0810 O   0  0  0  0  0  0  0  0  0  0  0  0
    0.0770  -23.1070    9.1600 O   0  0  0  0  0  0  0  0  0  0  0  0
    1.6940  -21.8970    7.6090 N   0  0  0  0  0  0  0  0  0  0  0  0
    4.1740  -26.1970    9.5550 C   0  0  0  0  0  0  0  0  0  0  0  0
    3.7820  -25.7240    8.3100 C   0  0  0  0  0  0  0  0  0  0  0  0
    2.9560  -24.6290    8.1770 C   0  0  0  0  0  0  0  0  0  0  0  0
    2.4900  -23.9790    9.2980 C   0  0  0  0  0  0  0  0  0  0  0  0
    2.8690  -24.4450   10.5540 C   0  0  0  0  0  0  0  0  0  0  0  0
    3.7120  -25.5470   10.7030 C   0  0  0  0  0  0  0  0  0  0  0  0
  1  2  1  0
  2  3  2  0
  2  4  1  0
  4  5  1  0
  6  7  2  0
  6  8  2  0
  6  9  1  0
  5 10  1  0
 10 11  2  0
 11 12  1  0
  6 13  1  0
 12 13  2  0
 13 14  1  0
 10 15  1  0
 14 15  2  0
M  END
