x1086-x1478
     RDKit          3D

 13 13  0  0  0  0  0  0  0  0999 V2000
    5.7810    3.4230   -7.3050 N   0  0  0  0  0  0  0  0  0  0  0  0
    4.1750   -1.6120   -9.1380 C   0  0  0  0  0  0  0  0  0  0  0  0
    4.4420    2.2020   -5.9240 O   0  0  0  0  0  0  0  0  0  0  0  0
    6.7900    1.5620   -5.8170 O   0  0  0  0  0  0  0  0  0  0  0  0
    5.4000    0.9180   -8.0400 C   0  0  0  0  0  0  0  0  0  0  0  0
    8.1930   -3.9010   -7.9670 F   0  0  0  0  0  0  0  0  0  0  0  0
    5.6340    1.9340   -6.5850 S   0  0  0  0  0  0  0  0  0  0  0  0
    5.5390   -1.5770   -8.5130 C   0  0  0  0  0  0  0  0  0  0  0  0
    6.1060   -0.4050   -7.9810 C   0  0  0  0  0  0  0  0  0  0  0  0
    7.3760   -0.4560   -7.3930 C   0  0  0  0  0  0  0  0  0  0  0  0
    8.0940   -1.6340   -7.3580 C   0  0  0  0  0  0  0  0  0  0  0  0
    7.5310   -2.7660   -7.9240 C   0  0  0  0  0  0  0  0  0  0  0  0
    6.2760   -2.7550   -8.4780 C   0  0  0  0  0  0  0  0  0  0  0  0
  7  1  1  0
  3  7  2  0
  4  7  2  0
  5  7  1  0
  2  8  1  0
  5  9  1  0
  8  9  2  0
  9 10  1  0
 10 11  2  0
  6 12  1  0
 11 12  1  0
  8 13  1  0
 12 13  2  0
M  END
