x1086-x0736
     RDKit          3D

 13 13  0  0  0  0  0  0  0  0999 V2000
    5.7610    3.4940   -7.1800 N   0  0  0  0  0  0  0  0  0  0  0  0
    4.0960   -1.4650   -9.3310 C   0  0  0  0  0  0  0  0  0  0  0  0
    4.4500    2.2090   -5.8710 O   0  0  0  0  0  0  0  0  0  0  0  0
    6.7780    1.5540   -5.8180 O   0  0  0  0  0  0  0  0  0  0  0  0
    5.3330    1.0160   -8.0570 C   0  0  0  0  0  0  0  0  0  0  0  0
    7.9960   -3.8680   -8.0540 F   0  0  0  0  0  0  0  0  0  0  0  0
    5.6210    1.9660   -6.5590 S   0  0  0  0  0  0  0  0  0  0  0  0
    5.4250   -1.4780   -8.6430 C   0  0  0  0  0  0  0  0  0  0  0  0
    5.9880   -0.3340   -8.0370 C   0  0  0  0  0  0  0  0  0  0  0  0
    7.2170   -0.4350   -7.3940 C   0  0  0  0  0  0  0  0  0  0  0  0
    7.8870   -1.6270   -7.3740 C   0  0  0  0  0  0  0  0  0  0  0  0
    7.3510   -2.7280   -8.0060 C   0  0  0  0  0  0  0  0  0  0  0  0
    6.1320   -2.6720   -8.6210 C   0  0  0  0  0  0  0  0  0  0  0  0
  7  1  1  0
  3  7  2  0
  4  7  2  0
  5  7  1  0
  2  8  1  0
  5  9  1  0
  8  9  2  0
  9 10  1  0
 10 11  2  0
  6 12  1  0
 11 12  1  0
  8 13  1  0
 12 13  2  0
M  END
