x1086-x0104
     RDKit          3D

 16 17  0  0  0  0  0  0  0  0999 V2000
    9.0120    6.5190   22.5940 C   0  0  0  0  0  0  0  0  0  0  0  0
   10.2810    6.1990   23.3900 C   0  0  0  0  0  0  0  0  0  0  0  0
   10.3440    6.3650   24.6030 O   0  0  0  0  0  0  0  0  0  0  0  0
   11.3110    5.7160   22.6150 N   0  0  0  0  0  0  0  0  0  0  0  0
   12.4850    4.9710   23.1250 C   0  0  0  0  0  0  0  0  0  0  0  0
   12.6580    3.6480   22.6380 C   0  0  0  0  0  0  0  0  0  0  0  0
   13.5310   -2.1870   22.2440 F   0  0  0  0  0  0  0  0  0  0  0  0
   11.8280    2.5970   23.1130 C   0  0  0  0  0  0  0  0  0  0  0  0
   10.5560    2.8610   23.7810 C   0  0  0  0  0  0  0  0  0  0  0  0
   10.0180    1.6310   24.0960 N   0  0  0  0  0  0  0  0  0  0  0  0
   10.8570    0.8500   23.6640 C   0  0  0  0  0  0  0  0  0  0  0  0
   12.0180    1.1140   23.0480 C   0  0  0  0  0  0  0  0  0  0  0  0
   10.5160   -0.5150   23.8570 C   0  0  0  0  0  0  0  0  0  0  0  0
   11.4170   -1.6660   23.3780 C   0  0  0  0  0  0  0  0  0  0  0  0
   12.6920   -1.2810   22.7020 C   0  0  0  0  0  0  0  0  0  0  0  0
   12.9550    0.1890   22.5710 C   0  0  0  0  0  0  0  0  0  0  0  0
  1  2  1  0
  2  3  2  0
  2  4  1  0
  4  5  1  0
  5  6  1  0
  6  8  1  0
  8  9  2  0
  9 10  1  0
 10 11  1  0
  8 12  1  0
 11 12  2  0
 11 13  1  0
 13 14  2  0
  7 15  1  0
 14 15  1  0
 12 16  1  0
 15 16  2  0
M  END
