x1086-x0874
     RDKit          3D

 13 13  0  0  0  0  0  0  0  0999 V2000
    5.7680    3.4470   -7.1780 N   0  0  0  0  0  0  0  0  0  0  0  0
    4.1790   -1.5780   -9.1400 C   0  0  0  0  0  0  0  0  0  0  0  0
    4.4590    2.1720   -5.8680 O   0  0  0  0  0  0  0  0  0  0  0  0
    6.8090    1.5430   -5.7710 O   0  0  0  0  0  0  0  0  0  0  0  0
    5.4170    0.9390   -8.0080 C   0  0  0  0  0  0  0  0  0  0  0  0
    8.1900   -3.8980   -7.9880 F   0  0  0  0  0  0  0  0  0  0  0  0
    5.6500    1.9250   -6.5310 S   0  0  0  0  0  0  0  0  0  0  0  0
    5.5430   -1.5570   -8.5130 C   0  0  0  0  0  0  0  0  0  0  0  0
    6.1140   -0.3920   -7.9660 C   0  0  0  0  0  0  0  0  0  0  0  0
    7.3840   -0.4550   -7.3770 C   0  0  0  0  0  0  0  0  0  0  0  0
    8.0970   -1.6350   -7.3510 C   0  0  0  0  0  0  0  0  0  0  0  0
    7.5300   -2.7600   -7.9320 C   0  0  0  0  0  0  0  0  0  0  0  0
    6.2750   -2.7370   -8.4900 C   0  0  0  0  0  0  0  0  0  0  0  0
  7  1  1  0
  3  7  2  0
  4  7  2  0
  5  7  1  0
  2  8  1  0
  5  9  1  0
  8  9  2  0
  9 10  1  0
 10 11  2  0
  6 12  1  0
 11 12  1  0
  8 13  1  0
 12 13  2  0
M  END
