x1119-x0689
     RDKit          3D

 17 18  0  0  0  0  0  0  0  0999 V2000
    7.2500   -3.0730   20.7460 C   0  0  0  0  0  0  0  0  0  0  0  0
    5.4720   -4.4220   19.8790 O   0  0  0  0  0  0  0  0  0  0  0  0
    6.3570   -4.2860   20.7460 C   0  0  0  0  0  0  0  0  0  0  0  0
    3.9740   -6.3520   25.9390 O   0  0  0  0  0  0  0  0  0  0  0  0
    5.6460   -4.5970   26.6510 O   0  0  0  0  0  0  0  0  0  0  0  0
    4.6760   -5.1100   25.7060 S   0  0  0  0  0  0  0  0  0  0  0  0
    6.6260   -5.1900   21.7480 N   0  0  0  0  0  0  0  0  0  0  0  0
    5.6360   -6.2080   22.0570 C   0  0  0  0  0  0  0  0  0  0  0  0
    4.7050   -5.7070   23.1360 C   0  0  0  0  0  0  0  0  0  0  0  0
    5.4330   -5.1830   24.1960 N   0  0  0  0  0  0  0  0  0  0  0  0
    6.3890   -4.2310   23.8860 C   0  0  0  0  0  0  0  0  0  0  0  0
    7.3120   -4.7000   22.9410 C   0  0  0  0  0  0  0  0  0  0  0  0
    3.8630   -2.2270   26.0350 S   0  0  0  0  0  0  0  0  0  0  0  0
    3.4130   -3.8480   25.6660 C   0  0  0  0  0  0  0  0  0  0  0  0
    2.0580   -3.9090   25.3840 C   0  0  0  0  0  0  0  0  0  0  0  0
    1.4190   -2.6840   25.4730 C   0  0  0  0  0  0  0  0  0  0  0  0
    2.2620   -1.6420   25.8220 C   0  0  0  0  0  0  0  0  0  0  0  0
  1  3  1  0
  2  3  2  0
  4  6  2  0
  5  6  2  0
  3  7  1  0
  7  8  1  0
  8  9  1  0
  6 10  1  0
  9 10  1  0
 10 11  1  0
  7 12  1  0
 11 12  1  0
  6 14  1  0
 13 14  1  0
 14 15  2  0
 15 16  1  0
 13 17  1  0
 16 17  2  0
M  END
