x1119-x1392
     RDKit          3D

 17 18  0  0  0  0  0  0  0  0999 V2000
   20.7910    7.9220   22.5680 N   0  0  0  0  0  0  0  0  0  0  0  0
   22.6520    2.1440   25.0330 O   0  0  0  0  0  0  0  0  0  0  0  0
   23.7180    3.6050   26.8550 N   0  0  0  0  0  0  0  0  0  0  0  0
   24.9160    3.0660   24.6940 O   0  0  0  0  0  0  0  0  0  0  0  0
   23.5810    3.2040   25.2240 S   0  0  0  0  0  0  0  0  0  0  0  0
   21.4620    6.8360   23.1360 C   0  0  0  0  0  0  0  0  0  0  0  0
   22.5280    6.1220   22.3740 C   0  0  0  0  0  0  0  0  0  0  0  0
   23.2160    4.9520   23.0580 C   0  0  0  0  0  0  0  0  0  0  0  0
   22.7950    4.5750   24.4390 C   0  0  0  0  0  0  0  0  0  0  0  0
   21.7810    5.3110   25.0690 C   0  0  0  0  0  0  0  0  0  0  0  0
   21.1480    6.3960   24.4340 C   0  0  0  0  0  0  0  0  0  0  0  0
   24.7800    4.8100   28.5050 N   0  0  0  0  0  0  0  0  0  0  0  0
   25.6970    5.7380   28.8890 C   0  0  0  0  0  0  0  0  0  0  0  0
   26.5240    6.4450   28.0130 C   0  0  0  0  0  0  0  0  0  0  0  0
   26.4490    6.2240   26.6300 C   0  0  0  0  0  0  0  0  0  0  0  0
   25.5430    5.2950   26.1470 C   0  0  0  0  0  0  0  0  0  0  0  0
   24.6850    4.5770   27.1810 C   0  0  0  0  0  0  0  0  0  0  0  0
  2  5  2  0
  5  3  1  0
  4  5  2  0
  1  6  1  0
  6  7  2  0
  7  8  1  0
  5  9  1  0
  8  9  2  0
  9 10  1  0
  6 11  1  0
 10 11  2  0
 12 13  2  0
 13 14  1  0
 14 15  2  0
 15 16  1  0
  3 17  1  0
 12 17  1  0
 16 17  2  0
M  END
