x1119-x1077
     RDKit          3D

 17 18  0  0  0  0  0  0  0  0999 V2000
   20.7920    7.9250   22.5530 N   0  0  0  0  0  0  0  0  0  0  0  0
   22.6470    2.1520   25.0340 O   0  0  0  0  0  0  0  0  0  0  0  0
   23.6790    3.6390   26.8590 N   0  0  0  0  0  0  0  0  0  0  0  0
   24.9150    3.0780   24.7200 O   0  0  0  0  0  0  0  0  0  0  0  0
   23.5750    3.2100   25.2330 S   0  0  0  0  0  0  0  0  0  0  0  0
   21.4630    6.8380   23.1250 C   0  0  0  0  0  0  0  0  0  0  0  0
   22.5310    6.1250   22.3670 C   0  0  0  0  0  0  0  0  0  0  0  0
   23.2190    4.9550   23.0570 C   0  0  0  0  0  0  0  0  0  0  0  0
   22.7970    4.5800   24.4370 C   0  0  0  0  0  0  0  0  0  0  0  0
   21.7790    5.3180   25.0630 C   0  0  0  0  0  0  0  0  0  0  0  0
   21.1460    6.4010   24.4220 C   0  0  0  0  0  0  0  0  0  0  0  0
   24.7730    4.8160   28.5100 N   0  0  0  0  0  0  0  0  0  0  0  0
   25.7070    5.7220   28.8950 C   0  0  0  0  0  0  0  0  0  0  0  0
   26.5460    6.4150   28.0210 C   0  0  0  0  0  0  0  0  0  0  0  0
   26.4660    6.2010   26.6360 C   0  0  0  0  0  0  0  0  0  0  0  0
   25.5400    5.2900   26.1510 C   0  0  0  0  0  0  0  0  0  0  0  0
   24.6700    4.5880   27.1860 C   0  0  0  0  0  0  0  0  0  0  0  0
  2  5  2  0
  5  3  1  0
  4  5  2  0
  1  6  1  0
  6  7  2  0
  7  8  1  0
  5  9  1  0
  8  9  2  0
  9 10  1  0
  6 11  1  0
 10 11  2  0
 12 13  2  0
 13 14  1  0
 14 15  2  0
 15 16  1  0
  3 17  1  0
 12 17  1  0
 16 17  2  0
M  END
