x1119-x0397
     RDKit          3D

 15 16  0  0  0  0  0  0  0  0999 V2000
    7.9010   -1.5560   20.8660 C   0  0  0  0  0  0  0  0  0  0  0  0
    6.9370   -2.1660   19.9500 N   0  0  0  0  0  0  0  0  0  0  0  0
    6.9340   -1.6840   18.6750 C   0  0  0  0  0  0  0  0  0  0  0  0
    3.6500    2.2430   19.3840 C   0  0  0  0  0  0  0  0  0  0  0  0
    6.1820   -3.2320   20.5080 C   0  0  0  0  0  0  0  0  0  0  0  0
    5.4380   -3.9550   19.8250 O   0  0  0  0  0  0  0  0  0  0  0  0
    6.3280   -3.4630   21.8650 N   0  0  0  0  0  0  0  0  0  0  0  0
    5.1100    0.0130   19.4270 C   0  0  0  0  0  0  0  0  0  0  0  0
    6.1430   -0.4200   18.6160 C   0  0  0  0  0  0  0  0  0  0  0  0
    6.3780    0.5040   17.6790 N   0  0  0  0  0  0  0  0  0  0  0  0
    5.4880    1.5350   17.9010 O   0  0  0  0  0  0  0  0  0  0  0  0
    4.7100    1.2310   18.9710 C   0  0  0  0  0  0  0  0  0  0  0  0
    6.5120   -5.2670   23.3570 C   0  0  0  0  0  0  0  0  0  0  0  0
    5.7710   -4.6500   22.4600 C   0  0  0  0  0  0  0  0  0  0  0  0
    6.0620   -5.7790   21.8660 C   0  0  0  0  0  0  0  0  0  0  0  0
  1  2  1  0
  2  3  1  0
  2  5  1  0
  5  6  2  0
  5  7  1  0
  3  9  1  0
  8  9  1  0
  9 10  2  0
 10 11  1  0
  4 12  1  0
  8 12  2  0
 11 12  1  0
  7 14  1  0
 13 14  1  0
 13 15  1  0
 14 15  1  0
M  END
