x1119-x0104
     RDKit          3D

 16 17  0  0  0  0  0  0  0  0999 V2000
    9.0790    6.5030   22.6560 C   0  0  0  0  0  0  0  0  0  0  0  0
   10.3480    6.1750   23.3850 C   0  0  0  0  0  0  0  0  0  0  0  0
   10.4290    6.3220   24.6010 O   0  0  0  0  0  0  0  0  0  0  0  0
   11.3600    5.7120   22.5790 N   0  0  0  0  0  0  0  0  0  0  0  0
   12.5210    5.0250   23.1670 C   0  0  0  0  0  0  0  0  0  0  0  0
   12.6370    3.6170   22.6390 C   0  0  0  0  0  0  0  0  0  0  0  0
   13.5810   -1.9530   22.1900 F   0  0  0  0  0  0  0  0  0  0  0  0
   11.7910    2.5950   23.1360 C   0  0  0  0  0  0  0  0  0  0  0  0
   10.6010    2.8730   23.7810 C   0  0  0  0  0  0  0  0  0  0  0  0
    9.9300    1.6690   24.1770 N   0  0  0  0  0  0  0  0  0  0  0  0
   10.7690    0.5770   23.7340 C   0  0  0  0  0  0  0  0  0  0  0  0
   11.9120    1.1370   23.1030 C   0  0  0  0  0  0  0  0  0  0  0  0
   10.5290   -0.8000   23.8790 C   0  0  0  0  0  0  0  0  0  0  0  0
   11.4560   -1.6860   23.3680 C   0  0  0  0  0  0  0  0  0  0  0  0
   12.6870   -1.1250   22.6930 C   0  0  0  0  0  0  0  0  0  0  0  0
   12.8710    0.2450   22.5990 C   0  0  0  0  0  0  0  0  0  0  0  0
  1  2  1  0
  2  3  2  0
  2  4  1  0
  4  5  1  0
  5  6  1  0
  6  8  1  0
  8  9  2  0
  9 10  1  0
 10 11  1  0
  8 12  1  0
 11 12  2  0
 11 13  1  0
 13 14  2  0
  7 15  1  0
 14 15  1  0
 12 16  1  0
 15 16  2  0
M  END
