x1119-x0736
     RDKit          3D

 17 18  0  0  0  0  0  0  0  0999 V2000
   20.7910    7.9260   22.5690 N   0  0  0  0  0  0  0  0  0  0  0  0
   22.6540    2.1480   25.0340 O   0  0  0  0  0  0  0  0  0  0  0  0
   23.7170    3.6080   26.8520 N   0  0  0  0  0  0  0  0  0  0  0  0
   24.9190    3.0640   24.6960 O   0  0  0  0  0  0  0  0  0  0  0  0
   23.5830    3.2040   25.2250 S   0  0  0  0  0  0  0  0  0  0  0  0
   21.4630    6.8390   23.1370 C   0  0  0  0  0  0  0  0  0  0  0  0
   22.5310    6.1250   22.3730 C   0  0  0  0  0  0  0  0  0  0  0  0
   23.2200    4.9540   23.0560 C   0  0  0  0  0  0  0  0  0  0  0  0
   22.8000    4.5760   24.4370 C   0  0  0  0  0  0  0  0  0  0  0  0
   21.7850    5.3130   25.0670 C   0  0  0  0  0  0  0  0  0  0  0  0
   21.1500    6.3980   24.4340 C   0  0  0  0  0  0  0  0  0  0  0  0
   24.7790    4.8090   28.5040 N   0  0  0  0  0  0  0  0  0  0  0  0
   25.6950    5.7380   28.8890 C   0  0  0  0  0  0  0  0  0  0  0  0
   26.5230    6.4450   28.0120 C   0  0  0  0  0  0  0  0  0  0  0  0
   26.4490    6.2240   26.6280 C   0  0  0  0  0  0  0  0  0  0  0  0
   25.5450    5.2960   26.1450 C   0  0  0  0  0  0  0  0  0  0  0  0
   24.6860    4.5780   27.1780 C   0  0  0  0  0  0  0  0  0  0  0  0
  2  5  2  0
  5  3  1  0
  4  5  2  0
  1  6  1  0
  6  7  2  0
  7  8  1  0
  5  9  1  0
  8  9  2  0
  9 10  1  0
  6 11  1  0
 10 11  2  0
 12 13  2  0
 13 14  1  0
 14 15  2  0
 15 16  1  0
  3 17  1  0
 12 17  1  0
 16 17  2  0
M  END
