x1119-x0771
     RDKit          3D

 20 21  0  0  0  0  0  0  0  0999 V2000
    0.6560   -1.3670   26.0420 C   0  0  0  0  0  0  0  0  0  0  0  0
    4.4590   -6.9780   25.7720 O   0  0  0  0  0  0  0  0  0  0  0  0
    5.9100   -5.2570   26.8700 O   0  0  0  0  0  0  0  0  0  0  0  0
    5.7670   -4.1970   19.8260 O   0  0  0  0  0  0  0  0  0  0  0  0
    1.9150   -6.0900   24.9770 C   0  0  0  0  0  0  0  0  0  0  0  0
    6.6200   -3.9050   20.6980 C   0  0  0  0  0  0  0  0  0  0  0  0
    7.6250   -2.8020   20.5000 C   0  0  0  0  0  0  0  0  0  0  0  0
    4.9920   -5.6430   25.8140 S   0  0  0  0  0  0  0  0  0  0  0  0
    1.7160   -2.4190   25.9860 C   0  0  0  0  0  0  0  0  0  0  0  0
    1.4340   -3.7160   25.5450 C   0  0  0  0  0  0  0  0  0  0  0  0
    2.3620   -4.7270   25.4590 C   0  0  0  0  0  0  0  0  0  0  0  0
    3.6730   -4.4410   25.8420 C   0  0  0  0  0  0  0  0  0  0  0  0
    4.0060   -3.1470   26.2880 C   0  0  0  0  0  0  0  0  0  0  0  0
    3.0370   -2.1480   26.3570 C   0  0  0  0  0  0  0  0  0  0  0  0
    6.7020   -4.5900   21.8900 N   0  0  0  0  0  0  0  0  0  0  0  0
    5.9930   -5.8680   22.0610 C   0  0  0  0  0  0  0  0  0  0  0  0
    5.0800   -5.8250   23.1530 C   0  0  0  0  0  0  0  0  0  0  0  0
    5.7580   -5.3140   24.3510 N   0  0  0  0  0  0  0  0  0  0  0  0
    6.2710   -3.9620   24.2570 C   0  0  0  0  0  0  0  0  0  0  0  0
    7.2350   -3.9340   23.1070 C   0  0  0  0  0  0  0  0  0  0  0  0
  4  6  2  0
  6  7  1  0
  2  8  2  0
  3  8  2  0
  1  9  1  0
  9 10  2  0
  5 11  1  0
 10 11  1  0
  8 12  1  0
 11 12  2  0
 12 13  1  0
  9 14  1  0
 13 14  2  0
  6 15  1  0
 15 16  1  0
 16 17  1  0
  8 18  1  0
 17 18  1  0
 18 19  1  0
 15 20  1  0
 19 20  1  0
M  END
