x1119-x0691
     RDKit          3D

 19 20  0  0  0  0  0  0  0  0999 V2000
    4.0060   -6.8480   25.8560 O   0  0  0  0  0  0  0  0  0  0  0  0
    5.7020   -5.2390   26.7760 O   0  0  0  0  0  0  0  0  0  0  0  0
    5.4730   -4.4480   19.8790 O   0  0  0  0  0  0  0  0  0  0  0  0
    6.2750   -4.2050   20.7870 C   0  0  0  0  0  0  0  0  0  0  0  0
    7.0280   -2.9080   20.7950 C   0  0  0  0  0  0  0  0  0  0  0  0
    3.2400   -0.5690   25.9560 F   0  0  0  0  0  0  0  0  0  0  0  0
    4.7180   -5.5920   25.7750 S   0  0  0  0  0  0  0  0  0  0  0  0
    2.8700   -1.8530   25.8760 C   0  0  0  0  0  0  0  0  0  0  0  0
    3.8690   -2.9590   25.8610 C   0  0  0  0  0  0  0  0  0  0  0  0
    3.4950   -4.2950   25.7790 C   0  0  0  0  0  0  0  0  0  0  0  0
    2.1280   -4.5950   25.7050 C   0  0  0  0  0  0  0  0  0  0  0  0
    1.1560   -3.5770   25.7170 C   0  0  0  0  0  0  0  0  0  0  0  0
    1.5230   -2.2260   25.8040 C   0  0  0  0  0  0  0  0  0  0  0  0
    6.5520   -5.1380   21.8750 N   0  0  0  0  0  0  0  0  0  0  0  0
    5.6340   -6.2590   22.0670 C   0  0  0  0  0  0  0  0  0  0  0  0
    4.7050   -5.9180   23.0600 C   0  0  0  0  0  0  0  0  0  0  0  0
    5.4420   -5.4590   24.2540 N   0  0  0  0  0  0  0  0  0  0  0  0
    6.2960   -4.3640   24.0730 C   0  0  0  0  0  0  0  0  0  0  0  0
    7.2290   -4.7300   23.1030 C   0  0  0  0  0  0  0  0  0  0  0  0
  3  4  2  0
  4  5  1  0
  1  7  2  0
  2  7  2  0
  6  8  1  0
  8  9  2  0
  7 10  1  0
  9 10  1  0
 10 11  2  0
 11 12  1  0
  8 13  1  0
 12 13  2  0
  4 14  1  0
 14 15  1  0
 15 16  1  0
  7 17  1  0
 16 17  1  0
 17 18  1  0
 14 19  1  0
 18 19  1  0
M  END
