x1119-x1384
     RDKit          3D

 17 18  0  0  0  0  0  0  0  0999 V2000
   20.8020    7.9260   22.5550 N   0  0  0  0  0  0  0  0  0  0  0  0
   22.6340    2.1570   25.0350 O   0  0  0  0  0  0  0  0  0  0  0  0
   23.6800    3.6430   26.8550 N   0  0  0  0  0  0  0  0  0  0  0  0
   24.9040    3.0710   24.7050 O   0  0  0  0  0  0  0  0  0  0  0  0
   23.5680    3.2110   25.2290 S   0  0  0  0  0  0  0  0  0  0  0  0
   21.4680    6.8420   23.1270 C   0  0  0  0  0  0  0  0  0  0  0  0
   22.5340    6.1240   22.3700 C   0  0  0  0  0  0  0  0  0  0  0  0
   23.2180    4.9530   23.0560 C   0  0  0  0  0  0  0  0  0  0  0  0
   22.7930    4.5790   24.4360 C   0  0  0  0  0  0  0  0  0  0  0  0
   21.7770    5.3190   25.0630 C   0  0  0  0  0  0  0  0  0  0  0  0
   21.1490    6.4030   24.4250 C   0  0  0  0  0  0  0  0  0  0  0  0
   24.7700    4.8150   28.5080 N   0  0  0  0  0  0  0  0  0  0  0  0
   25.7040    5.7210   28.8950 C   0  0  0  0  0  0  0  0  0  0  0  0
   26.5470    6.4160   28.0220 C   0  0  0  0  0  0  0  0  0  0  0  0
   26.4650    6.2000   26.6370 C   0  0  0  0  0  0  0  0  0  0  0  0
   25.5400    5.2920   26.1510 C   0  0  0  0  0  0  0  0  0  0  0  0
   24.6680    4.5880   27.1830 C   0  0  0  0  0  0  0  0  0  0  0  0
  2  5  2  0
  5  3  1  0
  4  5  2  0
  1  6  1  0
  6  7  2  0
  7  8  1  0
  5  9  1  0
  8  9  2  0
  9 10  1  0
  6 11  1  0
 10 11  2  0
 12 13  2  0
 13 14  1  0
 14 15  2  0
 15 16  1  0
  3 17  1  0
 12 17  1  0
 16 17  2  0
M  END
