x1119-x1385
     RDKit          3D

 17 18  0  0  0  0  0  0  0  0999 V2000
   20.7940    7.9230   22.5680 N   0  0  0  0  0  0  0  0  0  0  0  0
   22.6480    2.1480   25.0340 O   0  0  0  0  0  0  0  0  0  0  0  0
   23.7170    3.6040   26.8600 N   0  0  0  0  0  0  0  0  0  0  0  0
   24.9170    3.0650   24.7030 O   0  0  0  0  0  0  0  0  0  0  0  0
   23.5790    3.2020   25.2280 S   0  0  0  0  0  0  0  0  0  0  0  0
   21.4620    6.8400   23.1350 C   0  0  0  0  0  0  0  0  0  0  0  0
   22.5300    6.1240   22.3760 C   0  0  0  0  0  0  0  0  0  0  0  0
   23.2170    4.9550   23.0610 C   0  0  0  0  0  0  0  0  0  0  0  0
   22.7980    4.5760   24.4440 C   0  0  0  0  0  0  0  0  0  0  0  0
   21.7810    5.3170   25.0720 C   0  0  0  0  0  0  0  0  0  0  0  0
   21.1490    6.3990   24.4350 C   0  0  0  0  0  0  0  0  0  0  0  0
   24.7810    4.8080   28.5060 N   0  0  0  0  0  0  0  0  0  0  0  0
   25.6970    5.7370   28.8870 C   0  0  0  0  0  0  0  0  0  0  0  0
   26.5240    6.4440   28.0110 C   0  0  0  0  0  0  0  0  0  0  0  0
   26.4480    6.2210   26.6280 C   0  0  0  0  0  0  0  0  0  0  0  0
   25.5420    5.2930   26.1460 C   0  0  0  0  0  0  0  0  0  0  0  0
   24.6850    4.5750   27.1810 C   0  0  0  0  0  0  0  0  0  0  0  0
  2  5  2  0
  5  3  1  0
  4  5  2  0
  1  6  1  0
  6  7  2  0
  7  8  1  0
  5  9  1  0
  8  9  2  0
  9 10  1  0
  6 11  1  0
 10 11  2  0
 12 13  2  0
 13 14  1  0
 14 15  2  0
 15 16  1  0
  3 17  1  0
 12 17  1  0
 16 17  2  0
M  END
