x1132-x0426
     RDKit          3D

 18 19  0  0  0  0  0  0  0  0999 V2000
    2.2980    1.7290   23.8470 C   0  0  0  0  0  0  0  0  0  0  0  0
    2.2010    0.3040   23.8250 O   0  0  0  0  0  0  0  0  0  0  0  0
    3.4050    2.4550   23.2440 N   0  0  0  0  0  0  0  0  0  0  0  0
    4.3480    1.7640   22.3470 C   0  0  0  0  0  0  0  0  0  0  0  0
    3.6600    1.3590   21.0580 C   0  0  0  0  0  0  0  0  0  0  0  0
    2.6800    4.4240   25.2610 F   0  0  0  0  0  0  0  0  0  0  0  0
    1.4540    3.8780   25.2250 C   0  0  0  0  0  0  0  0  0  0  0  0
    1.2300    2.5330   24.5240 C   0  0  0  0  0  0  0  0  0  0  0  0
   -0.2360    2.0740   24.5890 C   0  0  0  0  0  0  0  0  0  0  0  0
   -1.2670    2.9160   25.2830 C   0  0  0  0  0  0  0  0  0  0  0  0
   -0.8990    4.1290   25.8800 C   0  0  0  0  0  0  0  0  0  0  0  0
    0.4190    4.5910   25.8480 C   0  0  0  0  0  0  0  0  0  0  0  0
    5.6450    0.0690   20.1740 C   0  0  0  0  0  0  0  0  0  0  0  0
    6.5310   -0.1970   19.1360 C   0  0  0  0  0  0  0  0  0  0  0  0
    6.5210    0.3950   17.9300 N   0  0  0  0  0  0  0  0  0  0  0  0
    5.4900    1.3940   17.7190 C   0  0  0  0  0  0  0  0  0  0  0  0
    4.5650    1.7270   18.6870 C   0  0  0  0  0  0  0  0  0  0  0  0
    4.6400    1.0230   20.0000 C   0  0  0  0  0  0  0  0  0  0  0  0
  1  2  2  0
  1  3  1  0
  3  4  1  0
  4  5  1  0
  6  7  1  0
  1  8  1  0
  7  8  2  0
  8  9  1  0
  9 10  2  0
 10 11  1  0
  7 12  1  0
 11 12  2  0
 13 14  2  0
 14 15  1  0
 15 16  2  0
 16 17  1  0
  5 18  1  0
 13 18  1  0
 17 18  2  0
M  END
