x1132-x0165
     RDKit          3D

 15 16  0  0  0  0  0  0  0  0999 V2000
    7.4200  -23.3880   -0.9890 C   0  0  0  0  0  0  0  0  0  0  0  0
    7.4310  -19.1150   -2.9720 C   0  0  0  0  0  0  0  0  0  0  0  0
    6.5110  -18.4530   -3.4310 O   0  0  0  0  0  0  0  0  0  0  0  0
    8.7020  -19.2110   -3.7820 C   0  0  0  0  0  0  0  0  0  0  0  0
    6.8230  -22.0780   -1.4660 C   0  0  1  0  0  0  0  0  0  0  0  0
    5.6990  -21.7750   -0.6220 O   0  0  0  0  0  0  0  0  0  0  0  0
    5.1190  -20.4670   -0.7560 C   0  0  0  0  0  0  0  0  0  0  0  0
    6.1700  -19.3460   -0.8720 C   0  0  0  0  0  0  0  0  0  0  0  0
    7.2950  -19.6940   -1.7450 N   0  0  0  0  0  0  0  0  0  0  0  0
    7.8900  -20.9950   -1.4900 C   0  0  0  0  0  0  0  0  0  0  0  0
    8.9420  -16.7890   -4.0560 C   0  0  0  0  0  0  0  0  0  0  0  0
    8.5450  -17.9950   -4.4870 N   0  0  0  0  0  0  0  0  0  0  0  0
    7.9150  -17.9900   -5.6700 N   0  0  0  0  0  0  0  0  0  0  0  0
    7.8870  -16.7070   -5.9930 C   0  0  0  0  0  0  0  0  0  0  0  0
    8.5070  -15.9550   -5.0210 C   0  0  0  0  0  0  0  0  0  0  0  0
  2  3  2  0
  2  4  1  0
  5  1  1  1
  5  6  1  0
  6  7  1  0
  7  8  1  0
  2  9  1  0
  8  9  1  0
  5 10  1  0
  9 10  1  0
  4 12  1  0
 11 12  1  0
 12 13  1  0
 13 14  2  0
 11 15  2  0
 14 15  1  0
M  END
