x1132-x1311
     RDKit          3D

 17 18  0  0  0  0  0  0  0  0999 V2000
    5.3600   -4.5570   19.8320 O   0  0  0  0  0  0  0  0  0  0  0  0
    5.7350   -3.9420   20.8310 C   0  0  0  0  0  0  0  0  0  0  0  0
    6.2510   -2.5810   20.6680 C   0  0  0  0  0  0  0  0  0  0  0  0
    5.6940   -4.4900   22.1730 N   0  0  0  0  0  0  0  0  0  0  0  0
    4.2770   -6.8400   26.0570 O   0  0  0  0  0  0  0  0  0  0  0  0
    2.2630   -5.7720   24.8890 O   0  0  0  0  0  0  0  0  0  0  0  0
    7.8050   -5.7550   23.0470 C   0  0  0  0  0  0  0  0  0  0  0  0
    9.1750   -5.7280   23.5960 C   0  0  0  0  0  0  0  0  0  0  0  0
    9.8620   -4.3590   23.8590 C   0  0  0  0  0  0  0  0  0  0  0  0
    8.9630   -3.1800   23.5410 C   0  0  0  0  0  0  0  0  0  0  0  0
    7.6000   -3.3200   23.0050 C   0  0  0  0  0  0  0  0  0  0  0  0
    7.0100   -4.5330   22.7370 C   0  0  0  0  0  0  0  0  0  0  0  0
    4.4710   -6.3880   22.5350 C   0  0  0  0  0  0  0  0  0  0  0  0
    4.5680   -5.0430   22.8860 C   0  0  1  0  0  0  0  0  0  0  0  0
    4.7290   -4.8700   24.2610 C   0  0  0  0  0  0  0  0  0  0  0  0
    3.6460   -6.1740   24.9450 S   0  0  0  0  0  0  0  0  0  0  0  0
    3.9570   -7.1620   23.5010 C   0  0  0  0  0  0  0  0  0  0  0  0
  1  2  2  0
  2  3  1  0
  2  4  1  0
  7  8  2  0
  8  9  1  0
  9 10  2  0
 10 11  1  0
  4 12  1  0
  7 12  1  0
 11 12  2  0
 14  4  1  6
 13 14  1  0
 14 15  1  0
 16  5  1  0
  6 16  1  0
 15 16  1  0
 13 17  2  0
 16 17  1  0
M  END
