x1132-x0104
     RDKit          3D

 16 17  0  0  0  0  0  0  0  0999 V2000
    8.9970    6.5570   22.6190 C   0  0  0  0  0  0  0  0  0  0  0  0
   10.2260    6.2170   23.3460 C   0  0  0  0  0  0  0  0  0  0  0  0
   10.3110    6.3900   24.5620 O   0  0  0  0  0  0  0  0  0  0  0  0
   11.2640    5.6930   22.5990 N   0  0  0  0  0  0  0  0  0  0  0  0
   12.3950    5.0340   23.2420 C   0  0  0  0  0  0  0  0  0  0  0  0
   12.8170    3.7270   22.6150 C   0  0  0  0  0  0  0  0  0  0  0  0
   13.5330   -2.0720   22.2080 F   0  0  0  0  0  0  0  0  0  0  0  0
   11.9480    2.5490   23.0880 C   0  0  0  0  0  0  0  0  0  0  0  0
   10.6530    2.9240   23.7660 C   0  0  0  0  0  0  0  0  0  0  0  0
    9.9780    1.7020   24.1260 N   0  0  0  0  0  0  0  0  0  0  0  0
   10.8200    0.5910   23.6820 C   0  0  0  0  0  0  0  0  0  0  0  0
   12.0100    1.0980   23.0620 C   0  0  0  0  0  0  0  0  0  0  0  0
   10.5720   -0.7820   23.8020 C   0  0  0  0  0  0  0  0  0  0  0  0
   11.5130   -1.6660   23.2910 C   0  0  0  0  0  0  0  0  0  0  0  0
   12.6680   -1.1970   22.6900 C   0  0  0  0  0  0  0  0  0  0  0  0
   12.9360    0.1620   22.5780 C   0  0  0  0  0  0  0  0  0  0  0  0
  1  2  1  0
  2  3  2  0
  2  4  1  0
  4  5  1  0
  5  6  1  0
  6  8  1  0
  8  9  2  0
  9 10  1  0
 10 11  1  0
  8 12  1  0
 11 12  2  0
 11 13  1  0
 13 14  2  0
  7 15  1  0
 14 15  1  0
 12 16  1  0
 15 16  2  0
M  END
