x1132-x1375
     RDKit          3D

 18 19  0  0  0  0  0  0  0  0999 V2000
    5.3960   -4.7600   19.8820 O   0  0  0  0  0  0  0  0  0  0  0  0
    5.9050   -4.1030   20.7930 C   0  0  0  0  0  0  0  0  0  0  0  0
    6.7620   -2.9510   20.4640 C   0  0  0  0  0  0  0  0  0  0  0  0
    5.7550   -4.4010   22.2060 N   0  0  0  0  0  0  0  0  0  0  0  0
    2.3160   -6.7310   24.5510 O   0  0  0  0  0  0  0  0  0  0  0  0
    4.5450   -7.9230   24.4260 O   0  0  0  0  0  0  0  0  0  0  0  0
   11.0910   -3.7500   24.4850 F   0  0  0  0  0  0  0  0  0  0  0  0
    7.7090   -2.8620   22.9950 C   0  0  0  0  0  0  0  0  0  0  0  0
    9.0690   -2.6130   23.5610 C   0  0  0  0  0  0  0  0  0  0  0  0
    9.8520   -3.8360   23.9760 C   0  0  0  0  0  0  0  0  0  0  0  0
    9.0680   -5.1600   23.7640 C   0  0  0  0  0  0  0  0  0  0  0  0
    7.7390   -5.3050   23.2000 C   0  0  0  0  0  0  0  0  0  0  0  0
    7.0430   -4.2110   22.7990 C   0  0  0  0  0  0  0  0  0  0  0  0
    4.8980   -4.3780   24.3740 C   0  0  0  0  0  0  0  0  0  0  0  0
    4.5630   -4.6060   23.0250 C   0  0  2  0  0  0  0  0  0  0  0  0
    4.1170   -5.9220   22.7790 C   0  0  0  0  0  0  0  0  0  0  0  0
    3.7440   -6.7500   24.3530 S   0  0  0  0  0  0  0  0  0  0  0  0
    4.5460   -5.3690   25.2050 C   0  0  0  0  0  0  0  0  0  0  0  0
  1  2  2  0
  2  3  1  0
  2  4  1  0
  8  9  2  0
  7 10  1  0
  9 10  1  0
 10 11  2  0
 11 12  1  0
  4 13  1  0
  8 13  1  0
 12 13  2  0
 15  4  1  6
 14 15  1  0
 15 16  1  0
 17  5  1  0
  6 17  1  0
 16 17  1  0
 14 18  2  0
 17 18  1  0
M  END
