x1132-x0376
     RDKit          3D

 15 16  0  0  0  0  0  0  0  0999 V2000
    7.5130  -23.2620   -0.9350 C   0  0  0  0  0  0  0  0  0  0  0  0
    7.3650  -18.8380   -2.8970 C   0  0  0  0  0  0  0  0  0  0  0  0
    7.6070  -17.6840   -2.7400 O   0  0  0  0  0  0  0  0  0  0  0  0
    7.5210  -19.4000   -4.2570 C   0  0  0  0  0  0  0  0  0  0  0  0
    6.7850  -22.0330   -1.4490 C   0  0  1  0  0  0  0  0  0  0  0  0
    5.6480  -21.7880   -0.5960 O   0  0  0  0  0  0  0  0  0  0  0  0
    4.9700  -20.5210   -0.7240 C   0  0  0  0  0  0  0  0  0  0  0  0
    5.9410  -19.3340   -0.9020 C   0  0  0  0  0  0  0  0  0  0  0  0
    6.9730  -19.6550   -1.8730 N   0  0  0  0  0  0  0  0  0  0  0  0
    7.7370  -20.8510   -1.5670 C   0  0  0  0  0  0  0  0  0  0  0  0
    9.6930  -18.2480   -4.0580 C   0  0  0  0  0  0  0  0  0  0  0  0
    8.7370  -18.8820   -4.7780 N   0  0  0  0  0  0  0  0  0  0  0  0
    8.9990  -19.0150   -6.0750 N   0  0  0  0  0  0  0  0  0  0  0  0
   10.1870  -18.4620   -6.1780 C   0  0  0  0  0  0  0  0  0  0  0  0
   10.6260  -17.9890   -4.9630 C   0  0  0  0  0  0  0  0  0  0  0  0
  2  3  2  0
  2  4  1  0
  5  1  1  1
  5  6  1  0
  6  7  1  0
  7  8  1  0
  2  9  1  0
  8  9  1  0
  5 10  1  0
  9 10  1  0
  4 12  1  0
 11 12  1  0
 12 13  1  0
 13 14  2  0
 11 15  2  0
 14 15  1  0
M  END
