x1132-x1374
     RDKit          3D

 18 19  0  0  0  0  0  0  0  0999 V2000
   11.0790   -3.8250   25.0740 C   0  0  0  0  0  0  0  0  0  0  0  0
    6.0400   -4.4260   22.2200 N   0  0  0  0  0  0  0  0  0  0  0  0
    6.1280   -4.0700   20.7910 C   0  0  0  0  0  0  0  0  0  0  0  0
    5.4770   -4.6210   19.8950 O   0  0  0  0  0  0  0  0  0  0  0  0
    7.1200   -2.9310   20.5680 C   0  0  0  0  0  0  0  0  0  0  0  0
    2.3730   -6.4770   23.5930 O   0  0  0  0  0  0  0  0  0  0  0  0
    4.1310   -8.0270   24.5140 O   0  0  0  0  0  0  0  0  0  0  0  0
    9.7690   -4.0230   24.3830 C   0  0  0  0  0  0  0  0  0  0  0  0
    9.1980   -2.8070   23.7060 C   0  0  0  0  0  0  0  0  0  0  0  0
    7.9030   -3.0450   22.9950 C   0  0  0  0  0  0  0  0  0  0  0  0
    7.2720   -4.3840   22.9810 C   0  0  0  0  0  0  0  0  0  0  0  0
    7.8810   -5.4490   23.6600 C   0  0  0  0  0  0  0  0  0  0  0  0
    9.0990   -5.2700   24.3460 C   0  0  0  0  0  0  0  0  0  0  0  0
    4.8760   -4.5620   24.2360 C   0  0  0  0  0  0  0  0  0  0  0  0
    4.8630   -4.9610   22.8920 C   0  0  2  0  0  0  0  0  0  0  0  0
    4.8500   -6.3470   22.7430 C   0  0  0  0  0  0  0  0  0  0  0  0
    3.7240   -6.7540   24.0260 S   0  0  0  0  0  0  0  0  0  0  0  0
    4.2690   -5.4380   25.0670 C   0  0  0  0  0  0  0  0  0  0  0  0
  2  3  1  0
  3  4  2  0
  3  5  1  0
  1  8  1  0
  8  9  2  0
  9 10  1  0
  2 11  1  0
 10 11  2  0
 11 12  1  0
  8 13  1  0
 12 13  2  0
 15  2  1  6
 14 15  1  0
 15 16  1  0
 17  6  1  0
  7 17  1  0
 16 17  1  0
 14 18  2  0
 17 18  1  0
M  END
