x1132-x1163
     RDKit          3D

 15 16  0  0  0  0  0  0  0  0999 V2000
    7.3550  -23.5550   -1.2510 C   0  0  0  0  0  0  0  0  0  0  0  0
    7.5130  -19.1200   -3.0730 C   0  0  0  0  0  0  0  0  0  0  0  0
    6.6110  -18.3770   -3.4340 O   0  0  0  0  0  0  0  0  0  0  0  0
    8.7690  -19.1830   -3.8960 C   0  0  0  0  0  0  0  0  0  0  0  0
    7.1040  -22.0810   -0.9970 C   0  0  2  0  0  0  0  0  0  0  0  0
    5.6950  -21.8240   -1.0700 O   0  0  0  0  0  0  0  0  0  0  0  0
    5.3180  -20.5300   -0.5980 C   0  0  0  0  0  0  0  0  0  0  0  0
    6.3620  -19.4470   -0.9430 C   0  0  0  0  0  0  0  0  0  0  0  0
    7.3790  -19.8350   -1.9350 N   0  0  0  0  0  0  0  0  0  0  0  0
    7.9080  -21.2000   -1.9290 C   0  0  0  0  0  0  0  0  0  0  0  0
    8.9520  -16.7570   -4.0790 C   0  0  0  0  0  0  0  0  0  0  0  0
    8.5770  -17.9530   -4.5510 N   0  0  0  0  0  0  0  0  0  0  0  0
    7.9310  -17.9240   -5.7270 N   0  0  0  0  0  0  0  0  0  0  0  0
    7.8730  -16.6340   -6.0000 C   0  0  0  0  0  0  0  0  0  0  0  0
    8.4910  -15.8990   -5.0100 C   0  0  0  0  0  0  0  0  0  0  0  0
  2  3  2  0
  2  4  1  0
  5  1  1  6
  5  6  1  0
  6  7  1  0
  7  8  1  0
  2  9  1  0
  8  9  1  0
  5 10  1  0
  9 10  1  0
  4 12  1  0
 11 12  1  0
 12 13  1  0
 13 14  2  0
 11 15  2  0
 14 15  1  0
M  END
