x1132-x0434
     RDKit          3D

 15 16  0  0  0  0  0  0  0  0999 V2000
    7.3680  -23.5450   -1.2050 C   0  0  0  0  0  0  0  0  0  0  0  0
    7.5190  -19.1100   -3.0800 C   0  0  0  0  0  0  0  0  0  0  0  0
    6.6250  -18.3570   -3.4330 O   0  0  0  0  0  0  0  0  0  0  0  0
    8.7710  -19.1780   -3.9100 C   0  0  0  0  0  0  0  0  0  0  0  0
    7.0990  -22.0690   -0.9950 C   0  0  2  0  0  0  0  0  0  0  0  0
    5.6870  -21.8400   -1.0650 O   0  0  0  0  0  0  0  0  0  0  0  0
    5.2820  -20.5250   -0.6700 C   0  0  0  0  0  0  0  0  0  0  0  0
    6.3580  -19.4540   -0.9630 C   0  0  0  0  0  0  0  0  0  0  0  0
    7.3790  -19.8370   -1.9520 N   0  0  0  0  0  0  0  0  0  0  0  0
    7.8790  -21.2060   -1.9660 C   0  0  0  0  0  0  0  0  0  0  0  0
    8.9450  -16.7530   -4.0910 C   0  0  0  0  0  0  0  0  0  0  0  0
    8.5780  -17.9500   -4.5690 N   0  0  0  0  0  0  0  0  0  0  0  0
    7.9440  -17.9140   -5.7490 N   0  0  0  0  0  0  0  0  0  0  0  0
    7.8820  -16.6230   -6.0190 C   0  0  0  0  0  0  0  0  0  0  0  0
    8.4880  -15.8900   -5.0210 C   0  0  0  0  0  0  0  0  0  0  0  0
  2  3  2  0
  2  4  1  0
  5  1  1  6
  5  6  1  0
  6  7  1  0
  7  8  1  0
  2  9  1  0
  8  9  1  0
  5 10  1  0
  9 10  1  0
  4 12  1  0
 11 12  1  0
 12 13  1  0
 13 14  2  0
 11 15  2  0
 14 15  1  0
M  END
