x1132-x1380
     RDKit          3D

 17 18  0  0  0  0  0  0  0  0999 V2000
    5.8730   -2.5810   19.7230 C   0  0  0  0  0  0  0  0  0  0  0  0
    5.3730   -4.8620   19.7400 O   0  0  0  0  0  0  0  0  0  0  0  0
    5.8930   -3.9290   20.3270 C   0  0  0  0  0  0  0  0  0  0  0  0
    4.6300   -2.7900   25.1710 O   0  0  0  0  0  0  0  0  0  0  0  0
    5.8970   -3.3710   25.4300 C   0  0  0  0  0  0  0  0  0  0  0  0
    6.5540   -4.1400   21.5220 N   0  0  0  0  0  0  0  0  0  0  0  0
    6.3360   -5.3770   22.2500 C   0  0  0  0  0  0  0  0  0  0  0  0
    5.7570   -5.0620   23.6230 C   0  0  0  0  0  0  0  0  0  0  0  0
    6.6860   -4.0130   24.2810 C   0  0  0  0  0  0  0  0  0  0  0  0
    7.2880   -2.9110   23.4260 C   0  0  0  0  0  0  0  0  0  0  0  0
    7.5250   -3.1810   22.0680 C   0  0  0  0  0  0  0  0  0  0  0  0
    7.8480   -3.7420   26.9450 C   0  0  0  0  0  0  0  0  0  0  0  0
    7.8630   -5.0230   27.4880 C   0  0  0  0  0  0  0  0  0  0  0  0
    7.0340   -5.2820   28.5730 C   0  0  0  0  0  0  0  0  0  0  0  0
    5.7770   -4.6550   28.6530 C   0  0  0  0  0  0  0  0  0  0  0  0
    5.6610   -3.4240   27.9960 C   0  0  0  0  0  0  0  0  0  0  0  0
    6.4570   -3.3650   26.7730 N   0  0  0  0  0  0  0  0  0  0  0  0
  1  3  1  0
  2  3  2  0
  4  5  2  0
  3  6  1  0
  6  7  1  0
  7  8  1  0
  5  9  1  0
  8  9  1  0
  9 10  1  0
  6 11  1  0
 10 11  1  0
 12 13  1  0
 13 14  1  0
 14 15  1  0
 15 16  1  0
  5 17  1  0
 12 17  1  0
 16 17  1  0
M  END
