x1132-x0669
     RDKit          3D

 15 16  0  0  0  0  0  0  0  0999 V2000
    7.3630  -23.3660   -0.9450 C   0  0  0  0  0  0  0  0  0  0  0  0
    7.1100  -19.2590   -2.8410 C   0  0  0  0  0  0  0  0  0  0  0  0
    6.4180  -18.3720   -3.3140 O   0  0  0  0  0  0  0  0  0  0  0  0
    8.1190  -19.9930   -3.6520 C   0  0  0  0  0  0  0  0  0  0  0  0
    6.7130  -22.0590   -1.3650 C   0  0  1  0  0  0  0  0  0  0  0  0
    5.5300  -21.8500   -0.5760 O   0  0  0  0  0  0  0  0  0  0  0  0
    4.8720  -20.5810   -0.7270 C   0  0  0  0  0  0  0  0  0  0  0  0
    5.8530  -19.3870   -0.7380 C   0  0  0  0  0  0  0  0  0  0  0  0
    7.0280  -19.6590   -1.5570 N   0  0  0  0  0  0  0  0  0  0  0  0
    7.7060  -20.9190   -1.2730 C   0  0  0  0  0  0  0  0  0  0  0  0
   10.1570  -19.0500   -4.6190 C   0  0  0  0  0  0  0  0  0  0  0  0
    8.8710  -19.0040   -4.2690 N   0  0  0  0  0  0  0  0  0  0  0  0
    8.2160  -17.8810   -4.5310 N   0  0  0  0  0  0  0  0  0  0  0  0
    9.1230  -17.1650   -5.0720 C   0  0  0  0  0  0  0  0  0  0  0  0
   10.3360  -17.8680   -5.1530 C   0  0  0  0  0  0  0  0  0  0  0  0
  2  3  2  0
  2  4  1  0
  5  1  1  1
  5  6  1  0
  6  7  1  0
  7  8  1  0
  2  9  1  0
  8  9  1  0
  5 10  1  0
  9 10  1  0
  4 12  1  0
 11 12  1  0
 12 13  1  0
 13 14  2  0
 11 15  2  0
 14 15  1  0
M  END
