x1132-x0395
     RDKit          3D

 15 16  0  0  0  0  0  0  0  0999 V2000
    7.4060  -23.3870   -0.9990 C   0  0  0  0  0  0  0  0  0  0  0  0
    7.4260  -19.1180   -2.9700 C   0  0  0  0  0  0  0  0  0  0  0  0
    6.5030  -18.4600   -3.4260 O   0  0  0  0  0  0  0  0  0  0  0  0
    8.6960  -19.2150   -3.7860 C   0  0  0  0  0  0  0  0  0  0  0  0
    6.8110  -22.0770   -1.4710 C   0  0  1  0  0  0  0  0  0  0  0  0
    5.6860  -21.7730   -0.6280 O   0  0  0  0  0  0  0  0  0  0  0  0
    5.1110  -20.4640   -0.7520 C   0  0  0  0  0  0  0  0  0  0  0  0
    6.1670  -19.3390   -0.8710 C   0  0  0  0  0  0  0  0  0  0  0  0
    7.2920  -19.6900   -1.7420 N   0  0  0  0  0  0  0  0  0  0  0  0
    7.8800  -20.9930   -1.4900 C   0  0  0  0  0  0  0  0  0  0  0  0
    8.9400  -16.7920   -4.0560 C   0  0  0  0  0  0  0  0  0  0  0  0
    8.5400  -17.9990   -4.4880 N   0  0  0  0  0  0  0  0  0  0  0  0
    7.9060  -17.9890   -5.6700 N   0  0  0  0  0  0  0  0  0  0  0  0
    7.8790  -16.7100   -5.9900 C   0  0  0  0  0  0  0  0  0  0  0  0
    8.5030  -15.9560   -5.0180 C   0  0  0  0  0  0  0  0  0  0  0  0
  2  3  2  0
  2  4  1  0
  5  1  1  1
  5  6  1  0
  6  7  1  0
  7  8  1  0
  2  9  1  0
  8  9  1  0
  5 10  1  0
  9 10  1  0
  4 12  1  0
 11 12  1  0
 12 13  1  0
 13 14  2  0
 11 15  2  0
 14 15  1  0
M  END
