x1132-x1119
     RDKit          3D

 17 18  0  0  0  0  0  0  0  0999 V2000
   20.7960    7.9460   22.4400 N   0  0  0  0  0  0  0  0  0  0  0  0
   22.7580    2.0520   25.0160 O   0  0  0  0  0  0  0  0  0  0  0  0
   23.7770    3.5750   26.8220 N   0  0  0  0  0  0  0  0  0  0  0  0
   24.9630    3.0910   24.6820 O   0  0  0  0  0  0  0  0  0  0  0  0
   23.6300    3.1580   25.2070 S   0  0  0  0  0  0  0  0  0  0  0  0
   21.4250    6.8730   23.0770 C   0  0  0  0  0  0  0  0  0  0  0  0
   22.4830    6.1280   22.4030 C   0  0  0  0  0  0  0  0  0  0  0  0
   23.1600    4.9840   23.0800 C   0  0  0  0  0  0  0  0  0  0  0  0
   22.8250    4.5200   24.4490 C   0  0  0  0  0  0  0  0  0  0  0  0
   21.7130    5.3180   25.1370 C   0  0  0  0  0  0  0  0  0  0  0  0
   21.0470    6.4990   24.3820 C   0  0  0  0  0  0  0  0  0  0  0  0
   24.8310    4.8040   28.5210 N   0  0  0  0  0  0  0  0  0  0  0  0
   25.7760    5.8010   28.9880 C   0  0  0  0  0  0  0  0  0  0  0  0
   26.5290    6.4540   27.9830 C   0  0  0  0  0  0  0  0  0  0  0  0
   26.3830    6.1700   26.6260 C   0  0  0  0  0  0  0  0  0  0  0  0
   25.4620    5.2070   26.2370 C   0  0  0  0  0  0  0  0  0  0  0  0
   24.7160    4.5540   27.2040 C   0  0  0  0  0  0  0  0  0  0  0  0
  2  5  2  0
  5  3  1  0
  4  5  2  0
  1  6  1  0
  6  7  2  0
  7  8  1  0
  5  9  1  0
  8  9  2  0
  9 10  1  0
  6 11  1  0
 10 11  2  0
 12 13  2  0
 13 14  1  0
 14 15  2  0
 15 16  1  0
  3 17  1  0
 12 17  1  0
 16 17  2  0
M  END
