x1132-x0705
     RDKit          3D

 18 19  0  0  0  0  0  0  0  0999 V2000
    1.1590   -2.5590   27.8730 C   0  0  0  0  0  0  0  0  0  0  0  0
    7.3910   -1.4550   26.1430 O   0  0  0  0  0  0  0  0  0  0  0  0
    5.7410   -3.8470   19.8000 O   0  0  0  0  0  0  0  0  0  0  0  0
    6.4480   -1.8390   25.4610 C   0  0  0  0  0  0  0  0  0  0  0  0
    6.7670   -3.1140   20.4910 C   0  0  0  0  0  0  0  0  0  0  0  0
    7.5060   -1.9730   19.8350 C   0  0  0  0  0  0  0  0  0  0  0  0
    2.5170   -2.3790   27.2610 C   0  0  0  0  0  0  0  0  0  0  0  0
    2.7210   -1.3600   26.1470 C   0  0  0  0  0  0  0  0  0  0  0  0
    4.0920   -1.2270   25.5790 C   0  0  0  0  0  0  0  0  0  0  0  0
    5.1260   -2.0310   26.0830 C   0  0  0  0  0  0  0  0  0  0  0  0
    4.9540   -2.9750   27.1110 C   0  0  0  0  0  0  0  0  0  0  0  0
    3.7140   -3.2090   27.7430 C   0  0  0  0  0  0  0  0  0  0  0  0
    7.1210   -3.4200   21.7870 N   0  0  0  0  0  0  0  0  0  0  0  0
    6.1220   -3.8910   22.7340 C   0  0  0  0  0  0  0  0  0  0  0  0
    5.5220   -2.7950   23.3420 C   0  0  0  0  0  0  0  0  0  0  0  0
    6.5550   -2.0930   24.1080 N   0  0  0  0  0  0  0  0  0  0  0  0
    7.7600   -1.6520   23.3930 C   0  0  0  0  0  0  0  0  0  0  0  0
    8.2320   -2.6620   22.3930 C   0  0  0  0  0  0  0  0  0  0  0  0
  2  4  2  0
  3  5  2  0
  5  6  1  0
  1  7  1  0
  7  8  2  0
  8  9  1  0
  4 10  1  0
  9 10  2  0
 10 11  1  0
  7 12  1  0
 11 12  2  0
  5 13  1  0
 13 14  1  0
 14 15  1  0
  4 16  1  0
 15 16  1  0
 16 17  1  0
 13 18  1  0
 17 18  1  0
M  END
