x1132-x0830
     RDKit          3D

 20 22  0  0  0  0  0  0  0  0999 V2000
    6.9870   -2.1330   18.6280 C   0  0  0  0  0  0  0  0  0  0  0  0
    5.5290   -3.6240   19.7050 O   0  0  0  0  0  0  0  0  0  0  0  0
    6.3250   -2.6650   19.8100 C   0  0  0  0  0  0  0  0  0  0  0  0
    9.7950   -2.3510   23.8490 C   0  0  0  0  0  0  0  0  0  0  0  0
    6.6420   -2.0470   20.9970 N   0  0  0  0  0  0  0  0  0  0  0  0
    6.3710   -2.7320   22.2690 C   0  0  0  0  0  0  0  0  0  0  0  0
    7.6940   -3.2560   22.8340 C   0  0  0  0  0  0  0  0  0  0  0  0
    8.6370   -2.1490   22.9890 N   0  0  0  0  0  0  0  0  0  0  0  0
    8.9440   -1.5400   21.7020 C   0  0  0  0  0  0  0  0  0  0  0  0
    7.7200   -1.0480   20.9860 C   0  0  0  0  0  0  0  0  0  0  0  0
   12.1080   -1.8890   22.8750 C   0  0  0  0  0  0  0  0  0  0  0  0
   13.1340   -1.0290   22.5300 C   0  0  0  0  0  0  0  0  0  0  0  0
   12.9410    0.3090   22.8180 C   0  0  0  0  0  0  0  0  0  0  0  0
   11.8040    0.8100   23.4130 C   0  0  0  0  0  0  0  0  0  0  0  0
   10.7880   -0.0940   23.7630 C   0  0  0  0  0  0  0  0  0  0  0  0
   10.9310   -1.4420   23.4880 C   0  0  0  0  0  0  0  0  0  0  0  0
   11.6750    2.1690   23.6460 C   0  0  0  0  0  0  0  0  0  0  0  0
   10.4140    2.6740   24.3000 C   0  0  0  0  0  0  0  0  0  0  0  0
    9.4250    1.7840   24.6630 C   0  0  0  0  0  0  0  0  0  0  0  0
    9.6180    0.3450   24.3830 C   0  0  0  0  0  0  0  0  0  0  0  0
  1  3  1  0
  2  3  2  0
  3  5  1  0
  5  6  1  0
  6  7  1  0
  4  8  1  0
  7  8  1  0
  8  9  1  0
  5 10  1  0
  9 10  1  0
 11 12  2  0
 12 13  1  0
 13 14  2  0
 14 15  1  0
  4 16  1  0
 11 16  1  0
 15 16  2  0
 14 17  1  0
 17 18  2  0
 18 19  1  0
 15 20  1  0
 19 20  2  0
M  END
