x1132-x0336
     RDKit          3D

 15 15  0  0  0  0  0  0  0  0999 V2000
    5.3750  -30.0640   10.7910 C   0  0  0  0  0  0  0  0  0  0  0  0
    4.9060  -29.8840    9.4090 C   0  0  0  0  0  0  0  0  0  0  0  0
    4.7540  -30.8650    8.6860 O   0  0  0  0  0  0  0  0  0  0  0  0
    4.6380  -28.5990    8.9550 N   0  0  0  0  0  0  0  0  0  0  0  0
    5.0220  -27.4310    9.7280 C   0  0  0  0  0  0  0  0  0  0  0  0
    1.3190  -22.4770    9.1300 S   0  0  0  0  0  0  0  0  0  0  0  0
    1.7610  -21.4970   10.0840 O   0  0  0  0  0  0  0  0  0  0  0  0
   -0.0280  -22.9890    9.1310 O   0  0  0  0  0  0  0  0  0  0  0  0
    1.6410  -21.8290    7.5950 N   0  0  0  0  0  0  0  0  0  0  0  0
    4.1270  -26.2400    9.5800 C   0  0  0  0  0  0  0  0  0  0  0  0
    3.7000  -25.8270    8.1980 C   0  0  0  0  0  0  0  0  0  0  0  0
    2.8070  -24.6090    8.1420 C   0  0  0  0  0  0  0  0  0  0  0  0
    2.3810  -23.8910    9.3760 C   0  0  0  0  0  0  0  0  0  0  0  0
    2.8610  -24.4180   10.5920 C   0  0  0  0  0  0  0  0  0  0  0  0
    3.7060  -25.5400   10.7040 C   0  0  0  0  0  0  0  0  0  0  0  0
  1  2  1  0
  2  3  2  0
  2  4  1  0
  4  5  1  0
  6  7  2  0
  6  8  2  0
  6  9  1  0
  5 10  1  0
 10 11  2  0
 11 12  1  0
  6 13  1  0
 12 13  2  0
 13 14  1  0
 10 15  1  0
 14 15  2  0
M  END
