x1132-x0398
     RDKit          3D

 15 16  0  0  0  0  0  0  0  0999 V2000
    7.3680  -23.5510   -1.2030 C   0  0  0  0  0  0  0  0  0  0  0  0
    7.5160  -19.1180   -3.0830 C   0  0  0  0  0  0  0  0  0  0  0  0
    6.6180  -18.3670   -3.4430 O   0  0  0  0  0  0  0  0  0  0  0  0
    8.7740  -19.1820   -3.9060 C   0  0  0  0  0  0  0  0  0  0  0  0
    7.1000  -22.0760   -0.9950 C   0  0  2  0  0  0  0  0  0  0  0  0
    5.6860  -21.8450   -1.0640 O   0  0  0  0  0  0  0  0  0  0  0  0
    5.2830  -20.5290   -0.6650 C   0  0  0  0  0  0  0  0  0  0  0  0
    6.3500  -19.4540   -0.9740 C   0  0  0  0  0  0  0  0  0  0  0  0
    7.3770  -19.8440   -1.9560 N   0  0  0  0  0  0  0  0  0  0  0  0
    7.8780  -21.2140   -1.9670 C   0  0  0  0  0  0  0  0  0  0  0  0
    8.9550  -16.7600   -4.0840 C   0  0  0  0  0  0  0  0  0  0  0  0
    8.5790  -17.9530   -4.5580 N   0  0  0  0  0  0  0  0  0  0  0  0
    7.9300  -17.9180   -5.7310 N   0  0  0  0  0  0  0  0  0  0  0  0
    7.8720  -16.6260   -6.0000 C   0  0  0  0  0  0  0  0  0  0  0  0
    8.4900  -15.8970   -5.0130 C   0  0  0  0  0  0  0  0  0  0  0  0
  2  3  2  0
  2  4  1  0
  5  1  1  6
  5  6  1  0
  6  7  1  0
  7  8  1  0
  2  9  1  0
  8  9  1  0
  5 10  1  0
  9 10  1  0
  4 12  1  0
 11 12  1  0
 12 13  1  0
 13 14  2  0
 11 15  2  0
 14 15  1  0
M  END
