x1132-x0350
     RDKit          3D

 24 26  0  0  0  0  0  0  0  0999 V2000
    7.7630  -23.4100   -1.0890 C   0  0  0  0  0  0  0  0  0  0  0  0
    7.4940  -19.1480   -2.9420 C   0  0  0  0  0  0  0  0  0  0  0  0
    6.5790  -18.4580   -3.3730 O   0  0  0  0  0  0  0  0  0  0  0  0
    8.7500  -19.2370   -3.7760 C   0  0  0  0  0  0  0  0  0  0  0  0
    9.7460  -24.5920   -0.2210 C   0  0  0  0  0  0  0  0  0  0  0  0
    8.8520  -23.4270   -0.0820 N   0  0  0  0  0  0  0  0  0  0  0  0
   10.9670  -26.9190    4.0890 F   0  0  0  0  0  0  0  0  0  0  0  0
    7.0800  -22.1000   -1.4440 C   0  0  1  0  0  0  0  0  0  0  0  0
    5.9690  -21.8590   -0.5370 O   0  0  0  0  0  0  0  0  0  0  0  0
    5.3560  -20.8040   -0.7580 C   0  0  0  0  0  0  0  0  0  0  0  0
    6.1500  -19.5290   -0.9200 C   0  0  0  0  0  0  0  0  0  0  0  0
    7.3470  -19.7630   -1.7230 N   0  0  0  0  0  0  0  0  0  0  0  0
    8.0080  -21.0260   -1.4400 C   0  0  0  0  0  0  0  0  0  0  0  0
    8.9520  -16.8020   -4.0480 C   0  0  0  0  0  0  0  0  0  0  0  0
    8.5710  -18.0230   -4.4830 N   0  0  0  0  0  0  0  0  0  0  0  0
    7.9300  -18.0310   -5.6780 N   0  0  0  0  0  0  0  0  0  0  0  0
    7.9060  -16.7480   -5.9530 C   0  0  0  0  0  0  0  0  0  0  0  0
    8.5060  -15.9610   -5.0080 C   0  0  0  0  0  0  0  0  0  0  0  0
   11.2960  -26.0120    3.1520 C   0  0  0  0  0  0  0  0  0  0  0  0
   10.4530  -25.7850    2.0460 C   0  0  0  0  0  0  0  0  0  0  0  0
   10.7080  -24.7980    0.9490 C   0  0  0  0  0  0  0  0  0  0  0  0
   12.0140  -24.0440    1.1240 C   0  0  0  0  0  0  0  0  0  0  0  0
   12.8310  -24.3070    2.2370 C   0  0  0  0  0  0  0  0  0  0  0  0
   12.4790  -25.3070    3.2900 C   0  0  0  0  0  0  0  0  0  0  0  0
  2  3  2  0
  2  4  1  0
  1  6  1  0
  5  6  1  0
  8  1  1  1
  8  9  1  0
  9 10  1  0
 10 11  1  0
  2 12  1  0
 11 12  1  0
  8 13  1  0
 12 13  1  0
  4 15  1  0
 14 15  1  0
 15 16  1  0
 16 17  2  0
 14 18  2  0
 17 18  1  0
  7 19  1  0
 19 20  2  0
  5 21  1  0
 20 21  1  0
 21 22  2  0
 22 23  1  0
 19 24  1  0
 23 24  2  0
M  END
