x1132-x0820
     RDKit          3D

 16 17  0  0  0  0  0  0  0  0999 V2000
    6.8800   -4.7710   21.7580 N   0  0  0  0  0  0  0  0  0  0  0  0
    7.6590   -2.5220   22.4830 C   0  0  0  0  0  0  0  0  0  0  0  0
    5.4810   -5.0060   19.8910 O   0  0  0  0  0  0  0  0  0  0  0  0
    7.3470   -3.9090   22.8580 C   0  0  1  0  0  0  0  0  0  0  0  0
    6.1840   -4.2830   20.5830 C   0  0  0  0  0  0  0  0  0  0  0  0
    6.3760   -2.8310   20.2260 C   0  0  0  0  0  0  0  0  0  0  0  0
    6.3350   -4.0520   23.9770 C   0  0  0  0  0  0  0  0  0  0  0  0
    6.7930   -4.3590   25.3910 C   0  0  0  0  0  0  0  0  0  0  0  0
    5.7440   -4.4740   26.4430 C   0  0  0  0  0  0  0  0  0  0  0  0
    4.3930   -4.3080   26.0930 C   0  0  0  0  0  0  0  0  0  0  0  0
    3.9600   -4.0320   24.7810 C   0  0  0  0  0  0  0  0  0  0  0  0
    4.8360   -3.8910   23.6930 C   0  0  0  0  0  0  0  0  0  0  0  0
    6.0910   -4.7490   27.7790 C   0  0  0  0  0  0  0  0  0  0  0  0
    7.4190   -4.9360   28.1700 C   0  0  0  0  0  0  0  0  0  0  0  0
    8.4450   -4.8540   27.2380 C   0  0  0  0  0  0  0  0  0  0  0  0
    8.1190   -4.5510   25.8170 C   0  0  0  0  0  0  0  0  0  0  0  0
  1  4  1  0
  4  2  1  6
  1  5  1  0
  3  5  2  0
  5  6  1  0
  4  7  1  0
  7  8  2  0
  8  9  1  0
  9 10  2  0
 10 11  1  0
  7 12  1  0
 11 12  2  0
  9 13  1  0
 13 14  2  0
 14 15  1  0
  8 16  1  0
 15 16  2  0
M  END
