x1163-x0692
     RDKit          3D

 17 18  0  0  0  0  0  0  0  0999 V2000
   10.9570    2.3590   23.7020 C   0  0  0  0  0  0  0  0  0  0  0  0
    5.4530   -3.9160   19.7380 O   0  0  0  0  0  0  0  0  0  0  0  0
    9.3450   -2.3320   23.9490 C   0  0  0  0  0  0  0  0  0  0  0  0
    6.0570   -2.8260   19.7900 C   0  0  0  0  0  0  0  0  0  0  0  0
    6.3680   -2.1230   18.6090 C   0  0  0  0  0  0  0  0  0  0  0  0
   11.2580    0.9030   23.5740 C   0  0  0  0  0  0  0  0  0  0  0  0
   10.2410   -0.0130   23.8140 C   0  0  0  0  0  0  0  0  0  0  0  0
   10.4820   -1.3650   23.6890 C   0  0  0  0  0  0  0  0  0  0  0  0
   11.7430   -1.8200   23.3300 C   0  0  0  0  0  0  0  0  0  0  0  0
   12.7790   -0.9110   23.0890 C   0  0  0  0  0  0  0  0  0  0  0  0
   12.5380    0.4570   23.2110 C   0  0  0  0  0  0  0  0  0  0  0  0
    6.4930   -2.2290   20.9580 N   0  0  0  0  0  0  0  0  0  0  0  0
    7.6130   -1.2760   20.9870 C   0  0  0  0  0  0  0  0  0  0  0  0
    8.7170   -1.8180   21.6480 C   0  0  0  0  0  0  0  0  0  0  0  0
    8.3650   -2.3430   22.9620 N   0  0  0  0  0  0  0  0  0  0  0  0
    7.2050   -3.2530   22.9800 C   0  0  0  0  0  0  0  0  0  0  0  0
    6.1050   -2.8020   22.2500 C   0  0  0  0  0  0  0  0  0  0  0  0
  2  4  2  0
  4  5  1  0
  1  6  1  0
  6  7  2  0
  3  8  1  0
  7  8  1  0
  8  9  2  0
  9 10  1  0
  6 11  1  0
 10 11  2  0
  4 12  1  0
 12 13  1  0
 13 14  1  0
  3 15  1  0
 14 15  1  0
 15 16  1  0
 12 17  1  0
 16 17  1  0
M  END
