x1163-x0874
     RDKit          3D

 15 16  0  0  0  0  0  0  0  0999 V2000
   21.5860   21.6800    4.0730 O   0  0  0  0  0  0  0  0  0  0  0  0
   21.3340   20.5920    3.5630 C   0  0  0  0  0  0  0  0  0  0  0  0
   22.1450   16.3200    5.2900 C   0  0  0  0  0  0  0  0  0  0  0  0
   21.1320   19.5790    4.6480 C   0  0  1  0  0  0  0  0  0  0  0  0
   20.0010   19.9290    5.4830 O   0  0  0  0  0  0  0  0  0  0  0  0
   19.9320   18.9920    6.5700 C   0  0  0  0  0  0  0  0  0  0  0  0
   21.0030   18.0610    6.5410 C   0  0  0  0  0  0  0  0  0  0  0  0
   21.0520   17.2880    5.2750 N   0  0  0  0  0  0  0  0  0  0  0  0
   21.0970   18.2120    4.1180 C   0  0  0  0  0  0  0  0  0  0  0  0
   22.6330   13.9290    5.8840 C   0  0  0  0  0  0  0  0  0  0  0  0
   22.3510   12.7460    6.5140 C   0  0  0  0  0  0  0  0  0  0  0  0
   21.2190   12.6110    7.2810 C   0  0  0  0  0  0  0  0  0  0  0  0
   20.3590   13.6790    7.4110 C   0  0  0  0  0  0  0  0  0  0  0  0
   20.6270   14.8990    6.7780 C   0  0  0  0  0  0  0  0  0  0  0  0
   21.7900   15.0310    5.9960 C   0  0  0  0  0  0  0  0  0  0  0  0
  1  2  1  0
  4  2  1  6
  4  5  1  0
  5  6  1  0
  6  7  1  0
  3  8  1  0
  7  8  1  0
  4  9  1  0
  8  9  1  0
 10 11  2  0
 11 12  1  0
 12 13  2  0
 13 14  1  0
  3 15  1  0
 10 15  1  0
 14 15  2  0
M  END
