x1163-x1493
     RDKit          3D

 12 12  0  0  0  0  0  0  0  0999 V2000
    4.9100   -6.2130   26.1410 C   0  0  0  0  0  0  0  0  0  0  0  0
    7.1570   -5.3810   26.1600 O   0  0  0  0  0  0  0  0  0  0  0  0
    6.1060   -5.4780   25.5370 C   0  0  0  0  0  0  0  0  0  0  0  0
    5.6210   -4.2700   19.9440 O   0  0  0  0  0  0  0  0  0  0  0  0
    6.7460   -4.1810   20.8390 C   0  0  0  0  0  0  0  0  0  0  0  0
    7.6170   -3.0550   20.7970 C   0  0  0  0  0  0  0  0  0  0  0  0
    5.8650   -4.9220   24.1890 N   0  0  0  0  0  0  0  0  0  0  0  0
    6.9740   -4.0460   23.7430 C   0  0  0  0  0  0  0  0  0  0  0  0
    7.8510   -4.6990   22.8860 C   0  0  0  0  0  0  0  0  0  0  0  0
    7.0650   -5.1920   21.7530 N   0  0  0  0  0  0  0  0  0  0  0  0
    6.0260   -6.1650   22.0810 C   0  0  0  0  0  0  0  0  0  0  0  0
    5.2210   -5.7530   23.1400 C   0  0  0  0  0  0  0  0  0  0  0  0
  1  3  1  0
  2  3  2  0
  4  5  2  0
  5  6  1  0
  3  7  1  0
  7  8  1  0
  8  9  1  0
  5 10  1  0
  9 10  1  0
 10 11  1  0
  7 12  1  0
 11 12  1  0
M  END
