x1163-x0177
     RDKit          3D

 18 19  0  0  0  0  0  0  0  0999 V2000
   23.6410  -16.5620   25.8950 N   0  0  0  0  0  0  0  0  0  0  0  0
   24.3660  -17.6020   25.2980 C   0  0  0  0  0  0  0  0  0  0  0  0
   25.6320  -18.0700   25.7680 O   0  0  0  0  0  0  0  0  0  0  0  0
   22.7080  -21.9820   22.1800 C   0  0  0  0  0  0  0  0  0  0  0  0
   21.6130  -22.4280   22.5340 O   0  0  0  0  0  0  0  0  0  0  0  0
   23.3210  -22.3820   20.9980 N   0  0  0  0  0  0  0  0  0  0  0  0
   23.8290  -18.3000   24.0670 C   0  0  0  0  0  0  0  0  0  0  0  0
   22.6360  -19.0270   24.1080 C   0  0  0  0  0  0  0  0  0  0  0  0
   22.7670  -20.4360   24.1920 C   0  0  0  0  0  0  0  0  0  0  0  0
   23.3930  -20.9830   22.9360 N   0  0  0  0  0  0  0  0  0  0  0  0
   24.3530  -19.9560   22.3690 C   0  0  0  0  0  0  0  0  0  0  0  0
   24.8950  -19.1660   23.3900 C   0  0  0  0  0  0  0  0  0  0  0  0
   22.4490  -23.0560   18.7040 C   0  0  0  0  0  0  0  0  0  0  0  0
   21.8490  -24.0270   17.8940 C   0  0  0  0  0  0  0  0  0  0  0  0
   21.4880  -25.2680   18.4240 C   0  0  0  0  0  0  0  0  0  0  0  0
   21.7220  -25.5350   19.7650 C   0  0  0  0  0  0  0  0  0  0  0  0
   22.3210  -24.5670   20.5810 C   0  0  0  0  0  0  0  0  0  0  0  0
   22.6890  -23.3310   20.0580 C   0  0  0  0  0  0  0  0  0  0  0  0
  1  2  1  0
  2  3  2  0
  4  5  2  0
  4  6  1  0
  2  7  1  0
  7  8  1  0
  8  9  1  0
  4 10  1  0
  9 10  1  0
 10 11  1  0
  7 12  1  0
 11 12  1  0
 13 14  2  0
 14 15  1  0
 15 16  2  0
 16 17  1  0
  6 18  1  0
 13 18  1  0
 17 18  2  0
M  END
