x1163-x0678
     RDKit          3D

 16 17  0  0  0  0  0  0  0  0999 V2000
    9.1690    1.4880   21.3320 O   0  0  0  0  0  0  0  0  0  0  0  0
    8.6730    0.4490   21.7820 C   0  0  0  0  0  0  0  0  0  0  0  0
    9.2020   -0.2850   23.0110 C   0  0  0  0  0  0  0  0  0  0  0  0
    7.5720   -0.2030   21.2670 N   0  0  0  0  0  0  0  0  0  0  0  0
   11.1840   -1.5120   22.2680 C   0  0  0  0  0  0  0  0  0  0  0  0
   12.5430   -1.8440   22.4590 C   0  0  0  0  0  0  0  0  0  0  0  0
   13.2460   -1.0770   23.4070 C   0  0  0  0  0  0  0  0  0  0  0  0
   12.5290   -0.5850   24.4920 C   0  0  0  0  0  0  0  0  0  0  0  0
   11.1720   -0.4680   24.3420 C   0  0  0  0  0  0  0  0  0  0  0  0
   10.7290   -0.4430   23.0430 C   0  0  0  0  0  0  0  0  0  0  0  0
    5.7570    1.0840   20.3870 C   0  0  0  0  0  0  0  0  0  0  0  0
    4.9940    1.5470   19.3150 C   0  0  0  0  0  0  0  0  0  0  0  0
    5.3400    1.1330   18.0510 C   0  0  0  0  0  0  0  0  0  0  0  0
    6.3630    0.3080   17.8050 N   0  0  0  0  0  0  0  0  0  0  0  0
    7.0860   -0.1320   18.8570 C   0  0  0  0  0  0  0  0  0  0  0  0
    6.8330    0.2250   20.1600 C   0  0  0  0  0  0  0  0  0  0  0  0
  1  2  2  0
  2  3  1  0
  2  4  1  0
  5  6  1  0
  6  7  1  0
  7  8  1  0
  8  9  1  0
  3 10  1  0
  5 10  1  0
  9 10  1  0
 11 12  2  0
 12 13  1  0
 13 14  2  0
 14 15  1  0
  4 16  1  0
 11 16  1  0
 15 16  2  0
M  END
