x1163-x1402
     RDKit          3D

 18 19  0  0  0  0  0  0  0  0999 V2000
    7.1980   -3.0550   20.7470 C   0  0  0  0  0  0  0  0  0  0  0  0
    5.4760   -4.5280   19.9280 O   0  0  0  0  0  0  0  0  0  0  0  0
    0.7500   -1.3280   26.1760 Cl  0  0  0  0  0  0  0  0  0  0  0  0
    6.3500   -4.3280   20.7800 C   0  0  0  0  0  0  0  0  0  0  0  0
    3.9020   -6.3940   25.9080 O   0  0  0  0  0  0  0  0  0  0  0  0
    5.9510   -5.2790   26.8760 O   0  0  0  0  0  0  0  0  0  0  0  0
    4.9100   -5.3630   25.8790 S   0  0  0  0  0  0  0  0  0  0  0  0
    6.7060   -5.2250   21.8830 N   0  0  0  0  0  0  0  0  0  0  0  0
    7.4270   -4.6580   23.0230 C   0  0  0  0  0  0  0  0  0  0  0  0
    6.5290   -4.2610   24.0120 C   0  0  0  0  0  0  0  0  0  0  0  0
    5.6610   -5.4250   24.3530 N   0  0  0  0  0  0  0  0  0  0  0  0
    4.8600   -5.8400   23.3060 C   0  0  0  0  0  0  0  0  0  0  0  0
    5.6570   -6.2190   22.2150 C   0  0  0  0  0  0  0  0  0  0  0  0
    2.3650   -3.8310   25.9930 S   0  0  0  0  0  0  0  0  0  0  0  0
    4.0840   -3.8010   25.9670 C   0  0  0  0  0  0  0  0  0  0  0  0
    4.5460   -2.4980   26.0250 C   0  0  0  0  0  0  0  0  0  0  0  0
    3.5320   -1.5530   26.0930 C   0  0  0  0  0  0  0  0  0  0  0  0
    2.2670   -2.1210   26.0920 C   0  0  0  0  0  0  0  0  0  0  0  0
  1  4  1  0
  2  4  2  0
  5  7  2  0
  6  7  2  0
  4  8  1  0
  8  9  1  0
  9 10  1  0
  7 11  1  0
 10 11  1  0
 11 12  1  0
  8 13  1  0
 12 13  1  0
  7 15  1  0
 14 15  1  0
 15 16  2  0
 16 17  1  0
  3 18  1  0
 14 18  1  0
 17 18  2  0
M  END
