x1163-x0434
     RDKit          3D

 16 17  0  0  0  0  0  0  0  0999 V2000
    8.6190    0.9290   21.2830 O   0  0  0  0  0  0  0  0  0  0  0  0
    8.2670   -0.2340   21.4570 C   0  0  0  0  0  0  0  0  0  0  0  0
    8.9970   -1.1520   22.1640 N   0  0  0  0  0  0  0  0  0  0  0  0
    7.0300   -0.7670   20.9230 N   0  0  0  0  0  0  0  0  0  0  0  0
   10.4440    0.4970   23.4600 C   0  0  0  0  0  0  0  0  0  0  0  0
   11.8480    0.8990   23.7910 C   0  0  0  0  0  0  0  0  0  0  0  0
   12.9000    0.1470   23.2690 C   0  0  0  0  0  0  0  0  0  0  0  0
   12.7000   -0.9750   22.4500 C   0  0  0  0  0  0  0  0  0  0  0  0
   11.4140   -1.4080   22.0940 C   0  0  0  0  0  0  0  0  0  0  0  0
   10.3090   -0.7040   22.5690 C   0  0  0  0  0  0  0  0  0  0  0  0
    5.1230    0.6230   20.2360 C   0  0  0  0  0  0  0  0  0  0  0  0
    4.5470    1.3230   19.1610 C   0  0  0  0  0  0  0  0  0  0  0  0
    5.1900    1.3090   17.9230 C   0  0  0  0  0  0  0  0  0  0  0  0
    6.3420    0.6520   17.6950 N   0  0  0  0  0  0  0  0  0  0  0  0
    6.8500    0.0040   18.7340 C   0  0  0  0  0  0  0  0  0  0  0  0
    6.3310   -0.0620   20.0090 C   0  0  0  0  0  0  0  0  0  0  0  0
  1  2  2  0
  2  3  1  0
  2  4  1  0
  5  6  2  0
  6  7  1  0
  7  8  2  0
  8  9  1  0
  3 10  1  0
  5 10  1  0
  9 10  2  0
 11 12  2  0
 12 13  1  0
 13 14  2  0
 14 15  1  0
  4 16  1  0
 11 16  1  0
 15 16  2  0
M  END
