x1163-x1478
     RDKit          3D

 11 11  0  0  0  0  0  0  0  0999 V2000
    7.0830   -2.8880   21.3290 N   0  0  0  0  0  0  0  0  0  0  0  0
    7.5080   -1.7020   19.2760 C   0  0  0  0  0  0  0  0  0  0  0  0
    5.6560   -3.1810   19.5030 O   0  0  0  0  0  0  0  0  0  0  0  0
    6.5070   -5.9170   21.9560 Cl  0  0  0  0  0  0  0  0  0  0  0  0
    6.6370   -2.6700   20.0430 C   0  0  0  0  0  0  0  0  0  0  0  0
    4.9560   -4.7090   23.8570 N   0  0  0  0  0  0  0  0  0  0  0  0
    5.8970   -4.5060   22.7320 C   0  0  0  0  0  0  0  0  0  0  0  0
    6.2140   -3.1780   22.3870 C   0  0  0  0  0  0  0  0  0  0  0  0
    5.6680   -2.0910   23.0820 C   0  0  0  0  0  0  0  0  0  0  0  0
    4.7860   -2.2670   24.1400 C   0  0  0  0  0  0  0  0  0  0  0  0
    4.4080   -3.5360   24.5520 C   0  0  0  0  0  0  0  0  0  0  0  0
  1  5  1  0
  2  5  1  0
  3  5  2  0
  4  7  1  0
  6  7  2  0
  1  8  1  0
  7  8  1  0
  8  9  2  0
  9 10  1  0
  6 11  1  0
 10 11  2  0
M  END
