x1163-x0499
     RDKit          3D

 17 18  0  0  0  0  0  0  0  0999 V2000
   25.8400    6.3860   13.7010 N   0  0  0  0  0  0  0  0  0  0  0  0
   25.6650    5.0330   13.4170 C   0  0  0  0  0  0  0  0  0  0  0  0
   25.8370    3.9830   14.3650 O   0  0  0  0  0  0  0  0  0  0  0  0
   24.2570    3.4190    8.0860 N   0  0  0  0  0  0  0  0  0  0  0  0
   23.0180    2.8550    7.8440 C   0  0  0  0  0  0  0  0  0  0  0  0
   22.1430    2.6510    8.6630 O   0  0  0  0  0  0  0  0  0  0  0  0
   25.2850    4.5670   12.0360 C   0  0  0  0  0  0  0  0  0  0  0  0
   24.9060    3.2390   11.7390 C   0  0  0  0  0  0  0  0  0  0  0  0
   24.5580    2.8200   10.4480 C   0  0  0  0  0  0  0  0  0  0  0  0
   24.6020    3.7750    9.4450 C   0  0  0  0  0  0  0  0  0  0  0  0
   24.9690    5.0880    9.6830 C   0  0  0  0  0  0  0  0  0  0  0  0
   25.3080    5.4920   10.9750 C   0  0  0  0  0  0  0  0  0  0  0  0
   23.0780    1.2250    5.8830 C   0  0  0  0  0  0  0  0  0  0  0  0
   22.8460    2.4940    6.4080 C   0  0  2  0  0  0  0  0  0  0  0  0
   23.6960    3.3670    5.6280 O   0  0  0  0  0  0  0  0  0  0  0  0
   24.3290    2.6370    4.6840 C   0  0  0  0  0  0  0  0  0  0  0  0
   23.6600    1.4170    4.6150 C   0  0  0  0  0  0  0  0  0  0  0  0
  1  2  1  0
  2  3  2  0
  4  5  1  0
  5  6  2  0
  2  7  1  0
  7  8  2  0
  8  9  1  0
  4 10  1  0
  9 10  2  0
 10 11  1  0
  7 12  1  0
 11 12  2  0
 14  5  1  1
 13 14  1  0
 14 15  1  0
 15 16  1  0
 13 17  1  0
 16 17  1  0
M  END
