x1163-x1334
     RDKit          3D

 16 17  0  0  0  0  0  0  0  0999 V2000
    6.3830   -2.0340   18.7220 C   0  0  0  0  0  0  0  0  0  0  0  0
    5.4300   -4.0180   19.7170 O   0  0  0  0  0  0  0  0  0  0  0  0
    7.3550   -5.6930   28.3670 Cl  0  0  0  0  0  0  0  0  0  0  0  0
    6.1080   -2.9880   19.8760 C   0  0  0  0  0  0  0  0  0  0  0  0
    9.5830   -3.0320   24.0290 C   0  0  0  0  0  0  0  0  0  0  0  0
    6.7590   -2.5900   21.1250 N   0  0  0  0  0  0  0  0  0  0  0  0
    7.7560   -1.5860   21.2540 C   0  0  0  0  0  0  0  0  0  0  0  0
    8.8630   -1.8680   22.0820 C   0  0  0  0  0  0  0  0  0  0  0  0
    8.4750   -2.6840   23.2420 N   0  0  0  0  0  0  0  0  0  0  0  0
    7.6440   -3.8240   22.9680 C   0  0  0  0  0  0  0  0  0  0  0  0
    6.4880   -3.4110   22.3130 C   0  0  0  0  0  0  0  0  0  0  0  0
    9.8710   -5.2640   25.3520 C   0  0  0  0  0  0  0  0  0  0  0  0
    9.2620   -4.0370   25.1090 C   0  0  0  0  0  0  0  0  0  0  0  0
    8.0100   -3.7610   26.2470 S   0  0  0  0  0  0  0  0  0  0  0  0
    8.3020   -5.2390   27.0200 C   0  0  0  0  0  0  0  0  0  0  0  0
    9.3240   -5.9620   26.4510 C   0  0  0  0  0  0  0  0  0  0  0  0
  1  4  1  0
  2  4  2  0
  4  6  1  0
  6  7  1  0
  7  8  1  0
  5  9  1  0
  8  9  1  0
  9 10  1  0
  6 11  1  0
 10 11  1  0
  5 13  1  0
 12 13  2  0
 13 14  1  0
  3 15  1  0
 14 15  1  0
 12 16  1  0
 15 16  2  0
M  END
