x1163-x1351
     RDKit          3D

 18 19  0  0  0  0  0  0  0  0999 V2000
    5.8760   -2.4710   19.5710 C   0  0  0  0  0  0  0  0  0  0  0  0
    5.3440   -4.8020   19.7030 O   0  0  0  0  0  0  0  0  0  0  0  0
    5.8050   -3.8260   20.2740 C   0  0  0  0  0  0  0  0  0  0  0  0
    5.7730   -2.8940   25.3590 N   0  0  0  0  0  0  0  0  0  0  0  0
    8.1600   -2.7540   26.1970 O   0  0  0  0  0  0  0  0  0  0  0  0
    6.8470   -2.2310   26.1050 C   0  0  0  0  0  0  0  0  0  0  0  0
    6.2940   -3.9710   21.5650 N   0  0  0  0  0  0  0  0  0  0  0  0
    7.3690   -3.0940   22.0570 C   0  0  0  0  0  0  0  0  0  0  0  0
    7.1650   -2.7710   23.4190 C   0  0  0  0  0  0  0  0  0  0  0  0
    5.8880   -3.1040   23.8850 C   0  0  0  0  0  0  0  0  0  0  0  0
    5.5730   -4.4470   23.6880 C   0  0  0  0  0  0  0  0  0  0  0  0
    5.8790   -5.0350   22.4670 C   0  0  0  0  0  0  0  0  0  0  0  0
    7.1570   -0.5620   27.9810 C   0  0  0  0  0  0  0  0  0  0  0  0
    6.8110    0.6350   28.6210 C   0  0  0  0  0  0  0  0  0  0  0  0
    5.8080    1.4430   28.0970 C   0  0  0  0  0  0  0  0  0  0  0  0
    5.1460    1.0540   26.9270 C   0  0  0  0  0  0  0  0  0  0  0  0
    5.5040   -0.1360   26.3080 C   0  0  0  0  0  0  0  0  0  0  0  0
    6.5040   -0.9620   26.8130 C   0  0  0  0  0  0  0  0  0  0  0  0
  1  3  1  0
  2  3  2  0
  4  6  1  0
  5  6  2  0
  3  7  1  0
  7  8  1  0
  8  9  1  0
  4 10  1  0
  9 10  1  0
 10 11  1  0
  7 12  1  0
 11 12  1  0
 13 14  2  0
 14 15  1  0
 15 16  2  0
 16 17  1  0
  6 18  1  0
 13 18  1  0
 17 18  2  0
M  END
