x1163-x0397
     RDKit          3D

 15 16  0  0  0  0  0  0  0  0999 V2000
    7.9000   -1.5380   20.8720 C   0  0  0  0  0  0  0  0  0  0  0  0
    6.9900   -2.1460   20.0170 N   0  0  0  0  0  0  0  0  0  0  0  0
    6.9110   -1.6670   18.7240 C   0  0  0  0  0  0  0  0  0  0  0  0
    3.6050    2.2560   19.4200 C   0  0  0  0  0  0  0  0  0  0  0  0
    6.1880   -3.2150   20.4950 C   0  0  0  0  0  0  0  0  0  0  0  0
    5.4560   -3.9060   19.7690 O   0  0  0  0  0  0  0  0  0  0  0  0
    6.2900   -3.4990   21.9660 N   0  0  0  0  0  0  0  0  0  0  0  0
    5.0970    0.0400   19.4470 C   0  0  0  0  0  0  0  0  0  0  0  0
    6.1220   -0.3730   18.6240 C   0  0  0  0  0  0  0  0  0  0  0  0
    6.3390    0.5500   17.6830 N   0  0  0  0  0  0  0  0  0  0  0  0
    5.4370    1.5690   17.9150 O   0  0  0  0  0  0  0  0  0  0  0  0
    4.6770    1.2520   18.9950 C   0  0  0  0  0  0  0  0  0  0  0  0
    6.5220   -5.5010   23.3560 C   0  0  0  0  0  0  0  0  0  0  0  0
    5.7200   -4.7090   22.4920 C   0  0  0  0  0  0  0  0  0  0  0  0
    6.0880   -5.8030   21.9790 C   0  0  0  0  0  0  0  0  0  0  0  0
  1  2  1  0
  2  3  1  0
  2  5  1  0
  5  6  2  0
  5  7  1  0
  3  9  1  0
  8  9  1  0
  9 10  2  0
 10 11  1  0
  4 12  1  0
  8 12  2  0
 11 12  1  0
  7 14  1  0
 13 14  1  0
 13 15  1  0
 14 15  1  0
M  END
