x1163-x0689
     RDKit          3D

 17 18  0  0  0  0  0  0  0  0999 V2000
    7.2490   -3.0120   20.7540 C   0  0  0  0  0  0  0  0  0  0  0  0
    5.4670   -4.3720   19.8530 O   0  0  0  0  0  0  0  0  0  0  0  0
    6.3280   -4.2360   20.7320 C   0  0  0  0  0  0  0  0  0  0  0  0
    3.9800   -6.3650   25.9920 O   0  0  0  0  0  0  0  0  0  0  0  0
    5.6360   -4.6050   26.7330 O   0  0  0  0  0  0  0  0  0  0  0  0
    4.6750   -5.1180   25.7850 S   0  0  0  0  0  0  0  0  0  0  0  0
    6.5810   -5.2030   21.8060 N   0  0  0  0  0  0  0  0  0  0  0  0
    5.5930   -6.2340   22.1000 C   0  0  0  0  0  0  0  0  0  0  0  0
    4.7010   -5.8310   23.1230 C   0  0  0  0  0  0  0  0  0  0  0  0
    5.4680   -5.2420   24.2750 N   0  0  0  0  0  0  0  0  0  0  0  0
    6.2930   -4.1850   23.9530 C   0  0  0  0  0  0  0  0  0  0  0  0
    7.2240   -4.5990   23.0000 C   0  0  0  0  0  0  0  0  0  0  0  0
    3.8820   -2.2470   26.0430 S   0  0  0  0  0  0  0  0  0  0  0  0
    3.4160   -3.8650   25.6930 C   0  0  0  0  0  0  0  0  0  0  0  0
    2.0680   -3.9190   25.3880 C   0  0  0  0  0  0  0  0  0  0  0  0
    1.4360   -2.6920   25.4470 C   0  0  0  0  0  0  0  0  0  0  0  0
    2.2910   -1.6540   25.7950 C   0  0  0  0  0  0  0  0  0  0  0  0
  1  3  1  0
  2  3  2  0
  4  6  2  0
  5  6  2  0
  3  7  1  0
  7  8  1  0
  8  9  1  0
  6 10  1  0
  9 10  1  0
 10 11  1  0
  7 12  1  0
 11 12  1  0
  6 14  1  0
 13 14  1  0
 14 15  2  0
 15 16  1  0
 13 17  1  0
 16 17  2  0
M  END
