x1163-x0104
     RDKit          3D

 16 17  0  0  0  0  0  0  0  0999 V2000
    9.0210    6.5150   22.6290 C   0  0  0  0  0  0  0  0  0  0  0  0
   10.3020    6.1960   23.3970 C   0  0  0  0  0  0  0  0  0  0  0  0
   10.3690    6.3500   24.6140 O   0  0  0  0  0  0  0  0  0  0  0  0
   11.3860    5.7080   22.5340 N   0  0  0  0  0  0  0  0  0  0  0  0
   12.5200    4.9700   23.1160 C   0  0  0  0  0  0  0  0  0  0  0  0
   12.6580    3.6460   22.6210 C   0  0  0  0  0  0  0  0  0  0  0  0
   13.5750   -1.9520   22.1820 F   0  0  0  0  0  0  0  0  0  0  0  0
   11.8110    2.6190   23.1200 C   0  0  0  0  0  0  0  0  0  0  0  0
   10.6210    2.9100   23.7700 C   0  0  0  0  0  0  0  0  0  0  0  0
    9.9720    1.6830   24.1570 N   0  0  0  0  0  0  0  0  0  0  0  0
   10.8130    0.5970   23.7080 C   0  0  0  0  0  0  0  0  0  0  0  0
   11.9330    1.1580   23.0830 C   0  0  0  0  0  0  0  0  0  0  0  0
   10.6130   -0.7870   23.8330 C   0  0  0  0  0  0  0  0  0  0  0  0
   11.5700   -1.6500   23.3000 C   0  0  0  0  0  0  0  0  0  0  0  0
   12.6790   -1.1270   22.6850 C   0  0  0  0  0  0  0  0  0  0  0  0
   12.8680    0.2440   22.5860 C   0  0  0  0  0  0  0  0  0  0  0  0
  1  2  1  0
  2  3  2  0
  2  4  1  0
  4  5  1  0
  5  6  1  0
  6  8  1  0
  8  9  2  0
  9 10  1  0
 10 11  1  0
  8 12  1  0
 11 12  2  0
 11 13  1  0
 13 14  2  0
  7 15  1  0
 14 15  1  0
 12 16  1  0
 15 16  2  0
M  END
