x1163-x1249
     RDKit          3D

 18 19  0  0  0  0  0  0  0  0999 V2000
    8.1210    0.5760   24.8730 N   0  0  0  0  0  0  0  0  0  0  0  0
    7.4280    1.4070   24.0010 C   0  0  0  0  0  0  0  0  0  0  0  0
    8.0590    2.5580   23.4320 O   0  0  0  0  0  0  0  0  0  0  0  0
    9.3950    0.8750   25.2850 C   0  0  0  0  0  0  0  0  0  0  0  0
   13.5930   -2.3730   20.7130 N   0  0  0  0  0  0  0  0  0  0  0  0
   12.9070   -1.6040   21.7030 C   0  0  0  0  0  0  0  0  0  0  0  0
    3.4660    0.3040   23.5320 O   0  0  0  0  0  0  0  0  0  0  0  0
    4.1710    0.8120   22.3810 C   0  0  0  0  0  0  0  0  0  0  0  0
    5.2060    1.7000   22.7410 C   0  0  0  0  0  0  0  0  0  0  0  0
    6.1270    1.0430   23.7400 N   0  0  0  0  0  0  0  0  0  0  0  0
    5.3210    0.4740   24.8700 C   0  0  0  0  0  0  0  0  0  0  0  0
    3.9820    0.7910   24.6910 C   0  0  0  0  0  0  0  0  0  0  0  0
   11.5120    1.0240   23.8880 C   0  0  0  0  0  0  0  0  0  0  0  0
   12.3970    0.3970   22.9920 C   0  0  0  0  0  0  0  0  0  0  0  0
   12.1150   -0.9140   22.5920 C   0  0  0  0  0  0  0  0  0  0  0  0
   11.0280   -1.6010   23.0460 C   0  0  0  0  0  0  0  0  0  0  0  0
   10.1980   -0.9750   23.9080 C   0  0  0  0  0  0  0  0  0  0  0  0
   10.3880    0.3010   24.3440 C   0  0  0  0  0  0  0  0  0  0  0  0
  1  2  1  0
  2  3  2  0
  1  4  1  0
  5  6  3  0
  7  8  1  0
  8  9  1  0
  2 10  1  0
  9 10  1  0
 10 11  1  0
  7 12  1  0
 11 12  1  0
 13 14  2  0
  6 15  1  0
 14 15  1  0
 15 16  2  0
 16 17  1  0
  4 18  1  0
 13 18  1  0
 17 18  2  0
M  END
