x1163-x0398
     RDKit          3D

 15 16  0  0  0  0  0  0  0  0999 V2000
   21.7480   21.1910    4.5780 O   0  0  0  0  0  0  0  0  0  0  0  0
   21.4730   20.4190    3.6640 C   0  0  0  0  0  0  0  0  0  0  0  0
   22.2530   16.3230    5.3760 C   0  0  0  0  0  0  0  0  0  0  0  0
   20.4920   19.3710    4.1210 C   0  0  2  0  0  0  0  0  0  0  0  0
   19.9290   19.8710    5.3790 O   0  0  0  0  0  0  0  0  0  0  0  0
   20.1050   19.0110    6.5160 C   0  0  0  0  0  0  0  0  0  0  0  0
   21.2920   18.2710    6.4270 C   0  0  0  0  0  0  0  0  0  0  0  0
   21.1780   17.3120    5.3290 N   0  0  0  0  0  0  0  0  0  0  0  0
   21.1420   18.0370    4.0460 C   0  0  0  0  0  0  0  0  0  0  0  0
   22.6710   13.9160    5.9490 C   0  0  0  0  0  0  0  0  0  0  0  0
   22.3420   12.7330    6.5560 C   0  0  0  0  0  0  0  0  0  0  0  0
   21.1820   12.6160    7.2920 C   0  0  0  0  0  0  0  0  0  0  0  0
   20.3370   13.7090    7.4100 C   0  0  0  0  0  0  0  0  0  0  0  0
   20.6610   14.9250    6.8000 C   0  0  0  0  0  0  0  0  0  0  0  0
   21.8480   15.0370    6.0550 C   0  0  0  0  0  0  0  0  0  0  0  0
  1  2  1  0
  4  2  1  1
  4  5  1  0
  5  6  1  0
  6  7  1  0
  3  8  1  0
  7  8  1  0
  4  9  1  0
  8  9  1  0
 10 11  2  0
 11 12  1  0
 12 13  2  0
 13 14  1  0
  3 15  1  0
 10 15  1  0
 14 15  2  0
M  END
