x1187-x0395
     RDKit          3D

 15 16  0  0  0  0  0  0  0  0999 V2000
    7.6590   -0.8580   -5.1650 C   0  0  0  0  0  0  0  0  0  0  0  0
    4.3900   -1.4020   -8.7980 C   0  0  0  0  0  0  0  0  0  0  0  0
    4.3010   -0.2760   -9.2580 O   0  0  0  0  0  0  0  0  0  0  0  0
    3.8080   -2.5300   -9.3770 N   0  0  0  0  0  0  0  0  0  0  0  0
    2.9000   -2.4700  -10.5460 C   0  0  0  0  0  0  0  0  0  0  0  0
    6.6120   -1.4750   -5.9300 N   0  0  0  0  0  0  0  0  0  0  0  0
    5.9770   -2.6420   -5.6640 C   0  0  0  0  0  0  0  0  0  0  0  0
    5.0840   -2.7670   -6.6790 C   0  0  0  0  0  0  0  0  0  0  0  0
    5.1560   -1.7130   -7.5510 C   0  0  0  0  0  0  0  0  0  0  0  0
    6.1330   -0.8820   -7.0780 N   0  0  0  0  0  0  0  0  0  0  0  0
    2.8580   -2.4030  -12.9700 C   0  0  0  0  0  0  0  0  0  0  0  0
    3.5800   -2.5100  -11.7730 C   0  0  2  0  0  0  0  0  0  0  0  0
    4.2580   -3.7770  -11.8690 O   0  0  0  0  0  0  0  0  0  0  0  0
    4.0760   -4.2600  -13.2060 C   0  0  0  0  0  0  0  0  0  0  0  0
    3.7130   -3.1550  -13.9710 C   0  0  0  0  0  0  0  0  0  0  0  0
  2  3  2  0
  2  4  1  0
  4  5  1  0
  1  6  1  0
  6  7  1  0
  7  8  2  0
  2  9  1  0
  8  9  1  0
  6 10  1  0
  9 10  2  0
 12  5  1  1
 11 12  1  0
 12 13  1  0
 13 14  1  0
 11 15  1  0
 14 15  1  0
M  END
