x1187-x0830
     RDKit          3D

 15 16  0  0  0  0  0  0  0  0999 V2000
    7.7330   -0.8690   -5.0670 C   0  0  0  0  0  0  0  0  0  0  0  0
    4.6130   -1.3400   -8.8340 C   0  0  0  0  0  0  0  0  0  0  0  0
    4.5850   -0.2230   -9.3260 O   0  0  0  0  0  0  0  0  0  0  0  0
    3.9870   -2.4430   -9.4050 N   0  0  0  0  0  0  0  0  0  0  0  0
    3.1740   -2.3410  -10.6240 C   0  0  0  0  0  0  0  0  0  0  0  0
    6.7000   -1.4580   -5.8730 N   0  0  0  0  0  0  0  0  0  0  0  0
    6.0180   -2.6030   -5.6280 C   0  0  0  0  0  0  0  0  0  0  0  0
    5.1690   -2.7050   -6.6790 C   0  0  0  0  0  0  0  0  0  0  0  0
    5.3140   -1.6580   -7.5560 C   0  0  0  0  0  0  0  0  0  0  0  0
    6.2940   -0.8570   -7.0470 N   0  0  0  0  0  0  0  0  0  0  0  0
    3.3340   -2.2900  -13.0260 C   0  0  0  0  0  0  0  0  0  0  0  0
    3.9140   -2.5920  -11.7830 C   0  0  2  0  0  0  0  0  0  0  0  0
    4.1710   -4.0070  -11.8530 O   0  0  0  0  0  0  0  0  0  0  0  0
    4.0670   -4.3960  -13.2290 C   0  0  0  0  0  0  0  0  0  0  0  0
    4.0550   -3.2190  -13.9780 C   0  0  0  0  0  0  0  0  0  0  0  0
  2  3  2  0
  2  4  1  0
  4  5  1  0
  1  6  1  0
  6  7  1  0
  7  8  2  0
  2  9  1  0
  8  9  1  0
  6 10  1  0
  9 10  2  0
 12  5  1  1
 11 12  1  0
 12 13  1  0
 13 14  1  0
 11 15  1  0
 14 15  1  0
M  END
