x1187-x0336
     RDKit          3D

 15 15  0  0  0  0  0  0  0  0999 V2000
    5.3460  -30.0720   10.7910 C   0  0  0  0  0  0  0  0  0  0  0  0
    4.8640  -29.8550    9.3770 C   0  0  0  0  0  0  0  0  0  0  0  0
    4.7210  -30.8140    8.6290 O   0  0  0  0  0  0  0  0  0  0  0  0
    4.5900  -28.5450    8.9680 N   0  0  0  0  0  0  0  0  0  0  0  0
    5.0920  -27.3500    9.6530 C   0  0  0  0  0  0  0  0  0  0  0  0
    1.3700  -22.5370    9.1580 S   0  0  0  0  0  0  0  0  0  0  0  0
    1.7950  -21.5250   10.0810 O   0  0  0  0  0  0  0  0  0  0  0  0
    0.0280  -23.0620    9.1810 O   0  0  0  0  0  0  0  0  0  0  0  0
    1.6170  -21.8970    7.6050 N   0  0  0  0  0  0  0  0  0  0  0  0
    4.1740  -26.1640    9.5540 C   0  0  0  0  0  0  0  0  0  0  0  0
    3.7580  -25.6840    8.3180 C   0  0  0  0  0  0  0  0  0  0  0  0
    2.9170  -24.5900    8.1640 C   0  0  0  0  0  0  0  0  0  0  0  0
    2.4580  -23.9430    9.3000 C   0  0  0  0  0  0  0  0  0  0  0  0
    2.8580  -24.4140   10.5440 C   0  0  0  0  0  0  0  0  0  0  0  0
    3.7110  -25.5080   10.6970 C   0  0  0  0  0  0  0  0  0  0  0  0
  1  2  1  0
  2  3  2  0
  2  4  1  0
  4  5  1  0
  6  7  2  0
  6  8  2  0
  6  9  1  0
  5 10  1  0
 10 11  2  0
 11 12  1  0
  6 13  1  0
 12 13  2  0
 13 14  1  0
 10 15  1  0
 14 15  2  0
M  END
