x1187-x1348
     RDKit          3D

 15 16  0  0  0  0  0  0  0  0999 V2000
    7.0370   -3.5750   21.3560 N   0  0  0  0  0  0  0  0  0  0  0  0
    7.9560   -5.0430   27.4390 C   0  0  0  0  0  0  0  0  0  0  0  0
    7.3940   -4.5640   26.4490 O   0  0  0  0  0  0  0  0  0  0  0  0
    5.3470   -4.1250   19.7350 O   0  0  0  0  0  0  0  0  0  0  0  0
    6.2280   -3.3770   20.1580 C   0  0  0  0  0  0  0  0  0  0  0  0
    6.6090   -2.1330   19.3860 C   0  0  0  0  0  0  0  0  0  0  0  0
    6.3640   -5.2750   25.8800 C   0  0  0  0  0  0  0  0  0  0  0  0
    6.1600   -5.1090   24.4990 C   0  0  0  0  0  0  0  0  0  0  0  0
    5.1390   -5.8090   23.8490 C   0  0  0  0  0  0  0  0  0  0  0  0
    4.3040   -6.6720   24.5600 C   0  0  0  0  0  0  0  0  0  0  0  0
    4.4900   -6.8400   25.9340 C   0  0  0  0  0  0  0  0  0  0  0  0
    5.5160   -6.1440   26.5880 C   0  0  0  0  0  0  0  0  0  0  0  0
    6.8920   -4.2820   23.6540 N   0  0  0  0  0  0  0  0  0  0  0  0
    6.4350   -4.3670   22.4300 C   0  0  0  0  0  0  0  0  0  0  0  0
    5.1360   -5.4190   22.1790 S   0  0  0  0  0  0  0  0  0  0  0  0
  2  3  1  0
  1  5  1  0
  4  5  2  0
  5  6  1  0
  3  7  1  0
  7  8  2  0
  8  9  1  0
  9 10  2  0
 10 11  1  0
  7 12  1  0
 11 12  2  0
  8 13  1  0
  1 14  1  0
 13 14  2  0
  9 15  1  0
 14 15  1  0
M  END
