x1187-x1311
     RDKit          3D

 17 18  0  0  0  0  0  0  0  0999 V2000
    5.3790   -4.8250   20.1040 O   0  0  0  0  0  0  0  0  0  0  0  0
    5.7750   -4.1200   21.0380 C   0  0  0  0  0  0  0  0  0  0  0  0
    6.1740   -2.7060   20.7190 C   0  0  0  0  0  0  0  0  0  0  0  0
    5.9270   -4.4980   22.4410 N   0  0  0  0  0  0  0  0  0  0  0  0
    4.0860   -7.5940   25.1740 O   0  0  0  0  0  0  0  0  0  0  0  0
    2.0670   -6.1150   24.7790 O   0  0  0  0  0  0  0  0  0  0  0  0
    7.8770   -5.5640   23.2050 C   0  0  0  0  0  0  0  0  0  0  0  0
    9.2160   -5.4330   23.7140 C   0  0  0  0  0  0  0  0  0  0  0  0
    9.7810   -4.1690   23.8820 C   0  0  0  0  0  0  0  0  0  0  0  0
    9.0820   -3.0260   23.6020 C   0  0  0  0  0  0  0  0  0  0  0  0
    7.7910   -3.1490   23.1250 C   0  0  0  0  0  0  0  0  0  0  0  0
    7.2180   -4.3960   22.9290 C   0  0  0  0  0  0  0  0  0  0  0  0
    4.5410   -6.3850   22.2730 C   0  0  0  0  0  0  0  0  0  0  0  0
    5.2990   -5.6290   23.1020 C   0  0  2  0  0  0  0  0  0  0  0  0
    4.4240   -5.1780   24.2680 C   0  0  0  0  0  0  0  0  0  0  0  0
    3.3780   -6.5870   24.4020 S   0  0  0  0  0  0  0  0  0  0  0  0
    3.4380   -6.9700   22.7960 C   0  0  0  0  0  0  0  0  0  0  0  0
  1  2  2  0
  2  3  1  0
  2  4  1  0
  7  8  2  0
  8  9  1  0
  9 10  2  0
 10 11  1  0
  4 12  1  0
  7 12  1  0
 11 12  2  0
 14  4  1  6
 13 14  1  0
 14 15  1  0
 16  5  1  0
  6 16  1  0
 15 16  1  0
 13 17  2  0
 16 17  1  0
M  END
