x1226-x1002
     RDKit          3D

 10 10  0  0  0  0  0  0  0  0999 V2000
   23.4130  -20.4380   23.4280 N   0  0  0  0  0  0  0  0  0  0  0  0
   23.7680  -18.1380   24.2320 C   0  0  0  0  0  0  0  0  0  0  0  0
   23.1710  -19.0170   23.1510 C   0  0  0  0  0  0  0  0  0  0  0  0
   22.6430  -20.8390   24.4140 C   0  0  0  0  0  0  0  0  0  0  0  0
   20.4260  -25.3670   24.4870 C   0  0  0  0  0  0  0  0  0  0  0  0
   20.9660  -24.0800   24.1350 N   0  0  0  0  0  0  0  0  0  0  0  0
   20.8530  -23.6160   22.8840 N   0  0  0  0  0  0  0  0  0  0  0  0
   21.4310  -22.4180   22.8330 N   0  0  0  0  0  0  0  0  0  0  0  0
   21.9220  -22.1200   24.0840 C   0  0  0  0  0  0  0  0  0  0  0  0
   21.6220  -23.1970   24.9320 C   0  0  0  0  0  0  0  0  0  0  0  0
  1  3  1  0
  2  3  1  0
  1  4  1  0
  5  6  1  0
  6  7  1  0
  7  8  2  0
  4  9  1  0
  8  9  1  0
  6 10  1  0
  9 10  2  0
M  END
