x1226-x1237
     RDKit          3D

 14 15  0  0  0  0  0  0  0  0999 V2000
   15.8640  -25.9060    7.2950 C   0  0  0  0  0  0  0  0  0  0  0  0
   15.3150  -28.4000    7.8630 O   0  0  0  0  0  0  0  0  0  0  0  0
   16.1960  -27.8840    5.4410 C   0  0  0  0  0  0  0  0  0  0  0  0
   17.7050  -27.6840    7.5910 O   0  0  0  0  0  0  0  0  0  0  0  0
   16.3170  -27.5970    7.1930 S   0  0  0  0  0  0  0  0  0  0  0  0
   14.6240  -26.1410    4.5440 N   0  0  0  0  0  0  0  0  0  0  0  0
   14.9250  -27.3930    4.8290 C   0  0  0  0  0  0  0  0  0  0  0  0
   13.8950  -28.2310    4.4720 N   0  0  0  0  0  0  0  0  0  0  0  0
   12.8980  -27.4780    3.9200 C   0  0  0  0  0  0  0  0  0  0  0  0
   13.3710  -26.1740    3.9760 C   0  0  0  0  0  0  0  0  0  0  0  0
   12.5760  -25.1350    3.4810 C   0  0  0  0  0  0  0  0  0  0  0  0
   11.3260  -25.4620    2.9340 C   0  0  0  0  0  0  0  0  0  0  0  0
   10.8880  -26.7850    2.8930 C   0  0  0  0  0  0  0  0  0  0  0  0
   11.6640  -27.8290    3.3920 C   0  0  0  0  0  0  0  0  0  0  0  0
  5  1  1  0
  2  5  2  0
  3  5  1  0
  4  5  2  0
  3  7  1  0
  6  7  2  0
  7  8  1  0
  8  9  1  0
  6 10  1  0
  9 10  2  0
 10 11  1  0
 11 12  2  0
 12 13  1  0
  9 14  1  0
 13 14  2  0
M  END
