x1226-x0991
     RDKit          3D

 10 10  0  0  0  0  0  0  0  0999 V2000
   23.4230  -20.4420   23.4340 N   0  0  0  0  0  0  0  0  0  0  0  0
   23.7820  -18.1350   24.2260 C   0  0  0  0  0  0  0  0  0  0  0  0
   23.1820  -19.0230   23.1530 C   0  0  0  0  0  0  0  0  0  0  0  0
   22.6400  -20.8400   24.4150 C   0  0  0  0  0  0  0  0  0  0  0  0
   20.4390  -25.3610   24.4870 C   0  0  0  0  0  0  0  0  0  0  0  0
   20.9750  -24.0780   24.1350 N   0  0  0  0  0  0  0  0  0  0  0  0
   20.8630  -23.6160   22.8810 N   0  0  0  0  0  0  0  0  0  0  0  0
   21.4380  -22.4210   22.8330 N   0  0  0  0  0  0  0  0  0  0  0  0
   21.9260  -22.1190   24.0840 C   0  0  0  0  0  0  0  0  0  0  0  0
   21.6260  -23.1940   24.9330 C   0  0  0  0  0  0  0  0  0  0  0  0
  1  3  1  0
  2  3  1  0
  1  4  1  0
  5  6  1  0
  6  7  1  0
  7  8  2  0
  4  9  1  0
  8  9  1  0
  6 10  1  0
  9 10  2  0
M  END
