x1237-x0395
     RDKit          3D

 14 15  0  0  0  0  0  0  0  0999 V2000
   15.7760  -25.8880    7.3560 C   0  0  0  0  0  0  0  0  0  0  0  0
   15.2690  -28.4290    7.5620 O   0  0  0  0  0  0  0  0  0  0  0  0
   16.2940  -27.5330    5.3770 C   0  0  0  0  0  0  0  0  0  0  0  0
   17.6500  -27.6410    7.5570 O   0  0  0  0  0  0  0  0  0  0  0  0
   16.2900  -27.5330    7.0800 S   0  0  0  0  0  0  0  0  0  0  0  0
   14.5810  -25.8050    4.4690 N   0  0  0  0  0  0  0  0  0  0  0  0
   15.0550  -27.1540    4.8230 C   0  0  0  0  0  0  0  0  0  0  0  0
   13.9750  -28.1070    4.4730 N   0  0  0  0  0  0  0  0  0  0  0  0
   12.9410  -27.4570    3.9390 C   0  0  0  0  0  0  0  0  0  0  0  0
   13.2750  -26.1180    3.9310 C   0  0  0  0  0  0  0  0  0  0  0  0
   12.4450  -25.1290    3.4460 C   0  0  0  0  0  0  0  0  0  0  0  0
   11.2070  -25.5260    2.9300 C   0  0  0  0  0  0  0  0  0  0  0  0
   10.8440  -26.8770    2.9230 C   0  0  0  0  0  0  0  0  0  0  0  0
   11.7080  -27.8420    3.4320 C   0  0  0  0  0  0  0  0  0  0  0  0
  5  1  1  0
  2  5  2  0
  3  5  1  0
  4  5  2  0
  3  7  1  0
  6  7  1  0
  7  8  2  0
  8  9  1  0
  6 10  1  0
  9 10  2  0
 10 11  1  0
 11 12  2  0
 12 13  1  0
  9 14  1  0
 13 14  2  0
M  END
