x1237-x0161
     RDKit          3D

 14 14  0  0  0  0  0  0  0  0999 V2000
   13.2430   -2.1040   24.3180 C   0  0  0  0  0  0  0  0  0  0  0  0
   12.7690   -0.9660   24.4240 O   0  0  0  0  0  0  0  0  0  0  0  0
   12.8680   -0.2520   23.4150 C   0  0  0  0  0  0  0  0  0  0  0  0
   13.4960   -0.5600   22.4100 O   0  0  0  0  0  0  0  0  0  0  0  0
   10.0380    5.0320   23.6930 S   0  0  0  0  0  0  0  0  0  0  0  0
   10.9260    6.0820   23.2340 O   0  0  0  0  0  0  0  0  0  0  0  0
    9.3160    5.1420   24.9560 O   0  0  0  0  0  0  0  0  0  0  0  0
    8.8190    4.9000   22.5510 N   0  0  0  0  0  0  0  0  0  0  0  0
   12.2220    1.0000   23.4470 C   0  0  0  0  0  0  0  0  0  0  0  0
   12.8040    2.1580   22.9720 C   0  0  0  0  0  0  0  0  0  0  0  0
   12.1520    3.3850   23.0230 C   0  0  0  0  0  0  0  0  0  0  0  0
   10.8760    3.4620   23.5770 C   0  0  0  0  0  0  0  0  0  0  0  0
   10.2760    2.2750   24.0550 C   0  0  0  0  0  0  0  0  0  0  0  0
   10.9470    1.0440   23.9900 C   0  0  0  0  0  0  0  0  0  0  0  0
  1  2  1  0
  2  3  1  0
  3  4  2  0
  5  6  2  0
  5  7  2  0
  5  8  1  0
  3  9  1  0
  9 10  2  0
 10 11  1  0
  5 12  1  0
 11 12  2  0
 12 13  1  0
  9 14  1  0
 13 14  2  0
M  END
