x1237-x0708
     RDKit          3D

 16 17  0  0  0  0  0  0  0  0999 V2000
    6.5930   -4.0850   21.2770 N   0  0  0  0  0  0  0  0  0  0  0  0
    6.8350   -2.2280   19.7860 C   0  0  0  0  0  0  0  0  0  0  0  0
    5.1960   -3.7900   19.3930 O   0  0  0  0  0  0  0  0  0  0  0  0
    6.1180   -3.3950   20.1040 C   0  0  0  0  0  0  0  0  0  0  0  0
    7.7870   -3.6140   21.7580 N   0  0  0  0  0  0  0  0  0  0  0  0
    6.7340   -2.6820   23.2770 O   0  0  0  0  0  0  0  0  0  0  0  0
    7.7490   -2.8300   22.5990 C   0  0  0  0  0  0  0  0  0  0  0  0
    8.8850   -2.0510   22.7900 C   0  0  0  0  0  0  0  0  0  0  0  0
   10.0940   -2.1890   22.1570 C   0  0  0  0  0  0  0  0  0  0  0  0
   10.9980   -1.2480   22.5680 C   0  0  0  0  0  0  0  0  0  0  0  0
   10.4490   -0.3630   23.5290 C   0  0  0  0  0  0  0  0  0  0  0  0
    8.8100   -0.7670   23.9170 S   0  0  0  0  0  0  0  0  0  0  0  0
   12.3420   -1.0610   22.1600 C   0  0  0  0  0  0  0  0  0  0  0  0
   13.0490   -0.0100   22.6960 C   0  0  0  0  0  0  0  0  0  0  0  0
   12.4680    0.8310   23.6050 C   0  0  0  0  0  0  0  0  0  0  0  0
   11.1900    0.6870   24.0510 C   0  0  0  0  0  0  0  0  0  0  0  0
  1  4  1  0
  2  4  1  0
  3  4  2  0
  1  5  1  0
  5  7  1  0
  6  7  2  0
  7  8  1  0
  8  9  2  0
  9 10  1  0
 10 11  2  0
  8 12  1  0
 11 12  1  0
 10 13  1  0
 13 14  2  0
 14 15  1  0
 11 16  1  0
 15 16  2  0
M  END
