x1237-x0981
     RDKit          3D

 15 14  0  0  0  0  0  0  0  0999 V2000
    1.1540   -8.6690   21.4090 C   0  0  0  0  0  0  0  0  0  0  0  0
    2.6630   -7.2590   22.7080 N   0  0  0  0  0  0  0  0  0  0  0  0
    0.4300   -6.6570   22.1930 O   0  0  0  0  0  0  0  0  0  0  0  0
    1.3490   -7.4720   22.1160 C   0  0  0  0  0  0  0  0  0  0  0  0
    2.3120   -8.3840   26.2640 N   0  0  0  0  0  0  0  0  0  0  0  0
    4.0700   -8.1890   24.6720 O   0  0  0  0  0  0  0  0  0  0  0  0
    2.9540   -6.0800   23.5370 C   0  0  1  0  0  0  0  0  0  0  0  0
    5.2360   -6.3660   22.5640 N   0  0  0  0  0  0  0  0  0  0  0  0
    4.5630   -4.3970   23.6490 O   0  0  0  0  0  0  0  0  0  0  0  0
    2.7600   -6.3900   24.8800 C   0  0  0  0  0  0  0  0  0  0  0  0
    3.1220   -7.6820   25.2200 C   0  0  0  0  0  0  0  0  0  0  0  0
    4.2630   -5.5330   23.2770 C   0  0  0  0  0  0  0  0  0  0  0  0
    6.4080   -5.8560   22.1200 C   0  0  0  0  0  0  0  0  0  0  0  0
    6.3820   -4.7440   21.3140 C   0  0  0  0  0  0  0  0  0  0  0  0
    5.6640   -4.7510   20.1510 C   0  0  0  0  0  0  0  0  0  0  0  0
  1  4  1  0
  2  4  1  0
  3  4  2  0
  2  7  1  0
  7 10  1  1
  5 11  1  0
  6 11  2  0
 10 11  1  0
  7 12  1  0
  8 12  1  0
  9 12  2  0
  8 13  1  0
 13 14  1  0
 14 15  2  3
M  END
