x1237-x0786
     RDKit          3D

 18 19  0  0  0  0  0  0  0  0999 V2000
    6.7470   -4.3790   21.9690 N   0  0  0  0  0  0  0  0  0  0  0  0
    6.8400   -2.7870   20.2630 C   0  0  0  0  0  0  0  0  0  0  0  0
    5.4420   -4.5920   19.9850 O   0  0  0  0  0  0  0  0  0  0  0  0
    6.2610   -3.9820   20.6810 C   0  0  0  0  0  0  0  0  0  0  0  0
    3.8680   -7.9690   24.8340 O   0  0  0  0  0  0  0  0  0  0  0  0
    3.4020   -6.9450   24.3380 C   0  0  0  0  0  0  0  0  0  0  0  0
    5.9030   -4.4430   23.1470 C   0  0  0  0  0  0  0  0  0  0  0  0
    5.0960   -5.5660   23.2220 C   0  0  0  0  0  0  0  0  0  0  0  0
    4.2290   -5.7760   24.2830 C   0  0  0  0  0  0  0  0  0  0  0  0
    4.1900   -4.8040   25.2960 C   0  0  0  0  0  0  0  0  0  0  0  0
    5.0020   -3.6660   25.2310 C   0  0  0  0  0  0  0  0  0  0  0  0
    5.8620   -3.4870   24.1500 C   0  0  0  0  0  0  0  0  0  0  0  0
    1.5130   -5.5320   23.4240 C   0  0  0  0  0  0  0  0  0  0  0  0
    0.6700   -5.0480   24.4150 C   0  0  0  0  0  0  0  0  0  0  0  0
   -0.7190   -6.1160   24.2190 S   0  0  0  0  0  0  0  0  0  0  0  0
   -0.0750   -7.5300   24.8470 C   0  0  0  0  0  0  0  0  0  0  0  0
    1.0080   -7.9000   24.0490 C   0  0  0  0  0  0  0  0  0  0  0  0
    2.0360   -6.8840   23.7960 N   0  0  0  0  0  0  0  0  0  0  0  0
  1  4  1  0
  2  4  1  0
  3  4  2  0
  5  6  2  0
  1  7  1  0
  7  8  2  0
  6  9  1  0
  8  9  1  0
  9 10  2  0
 10 11  1  0
  7 12  1  0
 11 12  2  0
 13 14  1  0
 14 15  1  0
 15 16  1  0
 16 17  1  0
  6 18  1  0
 13 18  1  0
 17 18  1  0
M  END
