x1237-x0995
     RDKit          3D

 14 15  0  0  0  0  0  0  0  0999 V2000
   15.8510  -25.9160    7.2690 C   0  0  0  0  0  0  0  0  0  0  0  0
   15.2760  -28.4130    7.7800 O   0  0  0  0  0  0  0  0  0  0  0  0
   16.2070  -27.8610    5.4540 C   0  0  0  0  0  0  0  0  0  0  0  0
   17.6710  -27.7190    7.5470 O   0  0  0  0  0  0  0  0  0  0  0  0
   16.2900  -27.6100    7.1380 S   0  0  0  0  0  0  0  0  0  0  0  0
   14.6720  -26.0180    4.5620 N   0  0  0  0  0  0  0  0  0  0  0  0
   15.0120  -27.4000    4.8840 C   0  0  0  0  0  0  0  0  0  0  0  0
   13.8870  -28.2700    4.4930 N   0  0  0  0  0  0  0  0  0  0  0  0
   12.9210  -27.5330    3.9560 C   0  0  0  0  0  0  0  0  0  0  0  0
   13.3540  -26.2190    3.9860 C   0  0  0  0  0  0  0  0  0  0  0  0
   12.5930  -25.1680    3.5010 C   0  0  0  0  0  0  0  0  0  0  0  0
   11.3400  -25.4720    2.9540 C   0  0  0  0  0  0  0  0  0  0  0  0
   10.8900  -26.7970    2.9130 C   0  0  0  0  0  0  0  0  0  0  0  0
   11.6770  -27.8270    3.4190 C   0  0  0  0  0  0  0  0  0  0  0  0
  5  1  1  0
  2  5  2  0
  3  5  1  0
  4  5  2  0
  3  7  1  0
  6  7  2  0
  7  8  1  0
  8  9  1  0
  6 10  1  0
  9 10  2  0
 10 11  1  0
 11 12  2  0
 12 13  1  0
  9 14  1  0
 13 14  2  0
M  END
