x1237-x0736
     RDKit          3D

 14 15  0  0  0  0  0  0  0  0999 V2000
   15.8310  -25.9140    7.2780 C   0  0  0  0  0  0  0  0  0  0  0  0
   15.2940  -28.4130    7.8000 O   0  0  0  0  0  0  0  0  0  0  0  0
   16.2010  -27.8650    5.4660 C   0  0  0  0  0  0  0  0  0  0  0  0
   17.6750  -27.6840    7.5560 O   0  0  0  0  0  0  0  0  0  0  0  0
   16.2910  -27.6010    7.1480 S   0  0  0  0  0  0  0  0  0  0  0  0
   14.6650  -26.0120    4.5680 N   0  0  0  0  0  0  0  0  0  0  0  0
   15.0050  -27.3920    4.8900 C   0  0  0  0  0  0  0  0  0  0  0  0
   13.8800  -28.2620    4.4920 N   0  0  0  0  0  0  0  0  0  0  0  0
   12.9140  -27.5250    3.9520 C   0  0  0  0  0  0  0  0  0  0  0  0
   13.3430  -26.2110    3.9860 C   0  0  0  0  0  0  0  0  0  0  0  0
   12.5800  -25.1600    3.5000 C   0  0  0  0  0  0  0  0  0  0  0  0
   11.3300  -25.4660    2.9470 C   0  0  0  0  0  0  0  0  0  0  0  0
   10.8840  -26.7930    2.9020 C   0  0  0  0  0  0  0  0  0  0  0  0
   11.6720  -27.8210    3.4090 C   0  0  0  0  0  0  0  0  0  0  0  0
  5  1  1  0
  2  5  2  0
  3  5  1  0
  4  5  2  0
  3  7  1  0
  6  7  2  0
  7  8  1  0
  8  9  1  0
  6 10  1  0
  9 10  2  0
 10 11  1  0
 11 12  2  0
 12 13  1  0
  9 14  1  0
 13 14  2  0
M  END
