x1237-x0731
     RDKit          3D

 19 20  0  0  0  0  0  0  0  0999 V2000
    0.9750   -0.9710   25.9980 C   0  0  0  0  0  0  0  0  0  0  0  0
    6.2630   -4.7670   26.7340 O   0  0  0  0  0  0  0  0  0  0  0  0
    4.6400   -6.5040   25.9570 O   0  0  0  0  0  0  0  0  0  0  0  0
    5.3560   -4.7060   19.8750 O   0  0  0  0  0  0  0  0  0  0  0  0
    6.2190   -4.2860   20.6480 C   0  0  0  0  0  0  0  0  0  0  0  0
    6.6640   -2.9630   20.5380 C   0  0  0  0  0  0  0  0  0  0  0  0
    5.2750   -5.2150   25.7840 S   0  0  0  0  0  0  0  0  0  0  0  0
    2.0410   -2.0180   25.9280 C   0  0  0  0  0  0  0  0  0  0  0  0
    1.7700   -3.2630   25.3630 C   0  0  0  0  0  0  0  0  0  0  0  0
    2.7500   -4.2480   25.3030 C   0  0  0  0  0  0  0  0  0  0  0  0
    4.0160   -3.9720   25.8210 C   0  0  0  0  0  0  0  0  0  0  0  0
    4.3040   -2.7300   26.3820 C   0  0  0  0  0  0  0  0  0  0  0  0
    3.3090   -1.7550   26.4320 C   0  0  0  0  0  0  0  0  0  0  0  0
    6.7930   -5.0780   21.6260 N   0  0  0  0  0  0  0  0  0  0  0  0
    7.5210   -4.3570   22.6780 C   0  0  0  0  0  0  0  0  0  0  0  0
    6.6680   -4.1400   23.7480 C   0  0  0  0  0  0  0  0  0  0  0  0
    5.9160   -5.1670   24.2000 N   0  0  0  0  0  0  0  0  0  0  0  0
    5.4040   -6.0270   23.2910 C   0  0  0  0  0  0  0  0  0  0  0  0
    6.1080   -6.2780   22.1260 C   0  0  0  0  0  0  0  0  0  0  0  0
  4  5  2  0
  5  6  1  0
  2  7  2  0
  3  7  2  0
  1  8  1  0
  8  9  2  0
  9 10  1  0
  7 11  1  0
 10 11  2  0
 11 12  1  0
  8 13  1  0
 12 13  2  0
  5 14  1  0
 14 15  1  0
 15 16  1  0
  7 17  1  0
 16 17  1  0
 17 18  1  0
 14 19  1  0
 18 19  1  0
M  END
