x1237-x0669
     RDKit          3D

 14 15  0  0  0  0  0  0  0  0999 V2000
   15.8320  -25.9140    7.2720 C   0  0  0  0  0  0  0  0  0  0  0  0
   15.2720  -28.4110    7.7790 O   0  0  0  0  0  0  0  0  0  0  0  0
   16.2120  -27.8530    5.4570 C   0  0  0  0  0  0  0  0  0  0  0  0
   17.6630  -27.7020    7.5610 O   0  0  0  0  0  0  0  0  0  0  0  0
   16.2830  -27.6010    7.1410 S   0  0  0  0  0  0  0  0  0  0  0  0
   14.6740  -26.0190    4.5550 N   0  0  0  0  0  0  0  0  0  0  0  0
   15.0150  -27.3970    4.8830 C   0  0  0  0  0  0  0  0  0  0  0  0
   13.8920  -28.2730    4.4910 N   0  0  0  0  0  0  0  0  0  0  0  0
   12.9230  -27.5370    3.9500 C   0  0  0  0  0  0  0  0  0  0  0  0
   13.3540  -26.2240    3.9780 C   0  0  0  0  0  0  0  0  0  0  0  0
   12.5930  -25.1720    3.4900 C   0  0  0  0  0  0  0  0  0  0  0  0
   11.3430  -25.4810    2.9420 C   0  0  0  0  0  0  0  0  0  0  0  0
   10.8910  -26.8060    2.9000 C   0  0  0  0  0  0  0  0  0  0  0  0
   11.6800  -27.8330    3.4110 C   0  0  0  0  0  0  0  0  0  0  0  0
  5  1  1  0
  2  5  2  0
  3  5  1  0
  4  5  2  0
  3  7  1  0
  6  7  2  0
  7  8  1  0
  8  9  1  0
  6 10  1  0
  9 10  2  0
 10 11  1  0
 11 12  2  0
 12 13  1  0
  9 14  1  0
 13 14  2  0
M  END
