x1237-x0752
     RDKit          3D

 14 15  0  0  0  0  0  0  0  0999 V2000
   15.8270  -25.9120    7.2830 C   0  0  0  0  0  0  0  0  0  0  0  0
   15.2970  -28.4100    7.8090 O   0  0  0  0  0  0  0  0  0  0  0  0
   16.1990  -27.8650    5.4680 C   0  0  0  0  0  0  0  0  0  0  0  0
   17.6750  -27.6740    7.5550 O   0  0  0  0  0  0  0  0  0  0  0  0
   16.2890  -27.5970    7.1510 S   0  0  0  0  0  0  0  0  0  0  0  0
   14.6630  -26.0120    4.5660 N   0  0  0  0  0  0  0  0  0  0  0  0
   15.0050  -27.3950    4.8900 C   0  0  0  0  0  0  0  0  0  0  0  0
   13.8770  -28.2620    4.4890 N   0  0  0  0  0  0  0  0  0  0  0  0
   12.9140  -27.5250    3.9500 C   0  0  0  0  0  0  0  0  0  0  0  0
   13.3440  -26.2110    3.9840 C   0  0  0  0  0  0  0  0  0  0  0  0
   12.5810  -25.1580    3.4970 C   0  0  0  0  0  0  0  0  0  0  0  0
   11.3310  -25.4670    2.9440 C   0  0  0  0  0  0  0  0  0  0  0  0
   10.8850  -26.7930    2.8990 C   0  0  0  0  0  0  0  0  0  0  0  0
   11.6740  -27.8210    3.4080 C   0  0  0  0  0  0  0  0  0  0  0  0
  5  1  1  0
  2  5  2  0
  3  5  1  0
  4  5  2  0
  3  7  1  0
  6  7  2  0
  7  8  1  0
  8  9  1  0
  6 10  1  0
  9 10  2  0
 10 11  1  0
 11 12  2  0
 12 13  1  0
  9 14  1  0
 13 14  2  0
M  END
