x1237-x0464
     RDKit          3D

 14 15  0  0  0  0  0  0  0  0999 V2000
   15.8410  -25.9150    7.2860 C   0  0  0  0  0  0  0  0  0  0  0  0
   15.2820  -28.4230    7.7460 O   0  0  0  0  0  0  0  0  0  0  0  0
   16.2390  -27.8040    5.4410 C   0  0  0  0  0  0  0  0  0  0  0  0
   17.6720  -27.6880    7.5690 O   0  0  0  0  0  0  0  0  0  0  0  0
   16.2950  -27.5990    7.1320 S   0  0  0  0  0  0  0  0  0  0  0  0
   14.6600  -25.9850    4.5300 N   0  0  0  0  0  0  0  0  0  0  0  0
   15.0310  -27.3550    4.8730 C   0  0  0  0  0  0  0  0  0  0  0  0
   13.8980  -28.2340    4.4970 N   0  0  0  0  0  0  0  0  0  0  0  0
   12.9160  -27.5070    3.9570 C   0  0  0  0  0  0  0  0  0  0  0  0
   13.3350  -26.1890    3.9670 C   0  0  0  0  0  0  0  0  0  0  0  0
   12.5620  -25.1450    3.4760 C   0  0  0  0  0  0  0  0  0  0  0  0
   11.3070  -25.4690    2.9400 C   0  0  0  0  0  0  0  0  0  0  0  0
   10.8730  -26.8010    2.9200 C   0  0  0  0  0  0  0  0  0  0  0  0
   11.6710  -27.8170    3.4330 C   0  0  0  0  0  0  0  0  0  0  0  0
  5  1  1  0
  2  5  2  0
  3  5  1  0
  4  5  2  0
  3  7  1  0
  6  7  1  0
  7  8  2  0
  8  9  1  0
  6 10  1  0
  9 10  2  0
 10 11  1  0
 11 12  2  0
 12 13  1  0
  9 14  1  0
 13 14  2  0
M  END
