x1237-x1163
     RDKit          3D

 14 15  0  0  0  0  0  0  0  0999 V2000
   15.8310  -25.9130    7.2840 C   0  0  0  0  0  0  0  0  0  0  0  0
   15.2680  -28.4240    7.7260 O   0  0  0  0  0  0  0  0  0  0  0  0
   16.2390  -27.8050    5.4340 C   0  0  0  0  0  0  0  0  0  0  0  0
   17.6610  -27.6990    7.5660 O   0  0  0  0  0  0  0  0  0  0  0  0
   16.2890  -27.5970    7.1260 S   0  0  0  0  0  0  0  0  0  0  0  0
   14.6630  -25.9920    4.5260 N   0  0  0  0  0  0  0  0  0  0  0  0
   15.0360  -27.3570    4.8670 C   0  0  0  0  0  0  0  0  0  0  0  0
   13.9110  -28.2410    4.4880 N   0  0  0  0  0  0  0  0  0  0  0  0
   12.9310  -27.5200    3.9490 C   0  0  0  0  0  0  0  0  0  0  0  0
   13.3460  -26.2010    3.9620 C   0  0  0  0  0  0  0  0  0  0  0  0
   12.5780  -25.1590    3.4740 C   0  0  0  0  0  0  0  0  0  0  0  0
   11.3250  -25.4820    2.9360 C   0  0  0  0  0  0  0  0  0  0  0  0
   10.8890  -26.8150    2.9090 C   0  0  0  0  0  0  0  0  0  0  0  0
   11.6870  -27.8290    3.4210 C   0  0  0  0  0  0  0  0  0  0  0  0
  5  1  1  0
  2  5  2  0
  3  5  1  0
  4  5  2  0
  3  7  1  0
  6  7  1  0
  7  8  2  0
  8  9  1  0
  6 10  1  0
  9 10  2  0
 10 11  1  0
 11 12  2  0
 12 13  1  0
  9 14  1  0
 13 14  2  0
M  END
