x1237-x1249
     RDKit          3D

 18 19  0  0  0  0  0  0  0  0999 V2000
    8.1290    0.5520   24.8720 N   0  0  0  0  0  0  0  0  0  0  0  0
    7.4400    1.4270   24.0360 C   0  0  0  0  0  0  0  0  0  0  0  0
    8.0210    2.3660   23.4920 O   0  0  0  0  0  0  0  0  0  0  0  0
    9.4750    0.8440   25.2810 C   0  0  0  0  0  0  0  0  0  0  0  0
   13.6720   -1.9530   20.7310 N   0  0  0  0  0  0  0  0  0  0  0  0
   13.0670   -1.5060   21.5530 C   0  0  0  0  0  0  0  0  0  0  0  0
    3.4560    0.9320   23.6000 O   0  0  0  0  0  0  0  0  0  0  0  0
    4.2610    0.9470   22.4160 C   0  0  0  0  0  0  0  0  0  0  0  0
    5.4550    1.6320   22.6650 C   0  0  0  0  0  0  0  0  0  0  0  0
    6.1010    1.1510   23.8930 N   0  0  0  0  0  0  0  0  0  0  0  0
    5.2300    0.8580   25.0330 C   0  0  0  0  0  0  0  0  0  0  0  0
    4.0380    0.2520   24.6190 C   0  0  0  0  0  0  0  0  0  0  0  0
   11.5690    0.9330   23.8810 C   0  0  0  0  0  0  0  0  0  0  0  0
   12.4450    0.3560   22.9770 C   0  0  0  0  0  0  0  0  0  0  0  0
   12.2180   -0.9190   22.4780 C   0  0  0  0  0  0  0  0  0  0  0  0
   11.1280   -1.6360   22.8820 C   0  0  0  0  0  0  0  0  0  0  0  0
   10.1760   -1.0260   23.8610 C   0  0  0  0  0  0  0  0  0  0  0  0
   10.4310    0.2410   24.3210 C   0  0  0  0  0  0  0  0  0  0  0  0
  1  2  1  0
  2  3  2  0
  1  4  1  0
  5  6  3  0
  7  8  1  0
  8  9  1  0
  2 10  1  0
  9 10  1  0
 10 11  1  0
  7 12  1  0
 11 12  1  0
 13 14  2  0
  6 15  1  0
 14 15  1  0
 15 16  2  0
 16 17  1  0
  4 18  1  0
 13 18  1  0
 17 18  2  0
M  END
