x1237-x0770
     RDKit          3D

 14 15  0  0  0  0  0  0  0  0999 V2000
   15.8350  -25.9130    7.2700 C   0  0  0  0  0  0  0  0  0  0  0  0
   15.2730  -28.4110    7.7770 O   0  0  0  0  0  0  0  0  0  0  0  0
   16.2140  -27.8540    5.4560 C   0  0  0  0  0  0  0  0  0  0  0  0
   17.6620  -27.7020    7.5630 O   0  0  0  0  0  0  0  0  0  0  0  0
   16.2830  -27.6020    7.1420 S   0  0  0  0  0  0  0  0  0  0  0  0
   14.6730  -26.0210    4.5540 N   0  0  0  0  0  0  0  0  0  0  0  0
   15.0160  -27.3980    4.8830 C   0  0  0  0  0  0  0  0  0  0  0  0
   13.8910  -28.2720    4.4910 N   0  0  0  0  0  0  0  0  0  0  0  0
   12.9230  -27.5400    3.9500 C   0  0  0  0  0  0  0  0  0  0  0  0
   13.3550  -26.2230    3.9780 C   0  0  0  0  0  0  0  0  0  0  0  0
   12.5950  -25.1750    3.4880 C   0  0  0  0  0  0  0  0  0  0  0  0
   11.3440  -25.4810    2.9390 C   0  0  0  0  0  0  0  0  0  0  0  0
   10.8920  -26.8070    2.8990 C   0  0  0  0  0  0  0  0  0  0  0  0
   11.6800  -27.8330    3.4100 C   0  0  0  0  0  0  0  0  0  0  0  0
  5  1  1  0
  2  5  2  0
  3  5  1  0
  4  5  2  0
  3  7  1  0
  6  7  2  0
  7  8  1  0
  8  9  1  0
  6 10  1  0
  9 10  2  0
 10 11  1  0
 11 12  2  0
 12 13  1  0
  9 14  1  0
 13 14  2  0
M  END
