x1237-x1385
     RDKit          3D

 14 15  0  0  0  0  0  0  0  0999 V2000
   15.8310  -25.9110    7.2930 C   0  0  0  0  0  0  0  0  0  0  0  0
   15.2960  -28.4110    7.8070 O   0  0  0  0  0  0  0  0  0  0  0  0
   16.2000  -27.8590    5.4710 C   0  0  0  0  0  0  0  0  0  0  0  0
   17.6740  -27.6830    7.5610 O   0  0  0  0  0  0  0  0  0  0  0  0
   16.2920  -27.5970    7.1550 S   0  0  0  0  0  0  0  0  0  0  0  0
   14.6640  -26.0080    4.5720 N   0  0  0  0  0  0  0  0  0  0  0  0
   15.0080  -27.3880    4.8960 C   0  0  0  0  0  0  0  0  0  0  0  0
   13.8810  -28.2600    4.4930 N   0  0  0  0  0  0  0  0  0  0  0  0
   12.9120  -27.5250    3.9500 C   0  0  0  0  0  0  0  0  0  0  0  0
   13.3440  -26.2100    3.9870 C   0  0  0  0  0  0  0  0  0  0  0  0
   12.5790  -25.1590    3.4980 C   0  0  0  0  0  0  0  0  0  0  0  0
   11.3280  -25.4690    2.9410 C   0  0  0  0  0  0  0  0  0  0  0  0
   10.8850  -26.7950    2.8950 C   0  0  0  0  0  0  0  0  0  0  0  0
   11.6760  -27.8210    3.4060 C   0  0  0  0  0  0  0  0  0  0  0  0
  5  1  1  0
  2  5  2  0
  3  5  1  0
  4  5  2  0
  3  7  1  0
  6  7  2  0
  7  8  1  0
  8  9  1  0
  6 10  1  0
  9 10  2  0
 10 11  1  0
 11 12  2  0
 12 13  1  0
  9 14  1  0
 13 14  2  0
M  END
