x1237-x1351
     RDKit          3D

 18 19  0  0  0  0  0  0  0  0999 V2000
    5.8320   -2.5030   19.6210 C   0  0  0  0  0  0  0  0  0  0  0  0
    5.3470   -4.7330   19.7200 O   0  0  0  0  0  0  0  0  0  0  0  0
    5.7990   -3.7430   20.2790 C   0  0  0  0  0  0  0  0  0  0  0  0
    5.7750   -2.9480   25.3210 N   0  0  0  0  0  0  0  0  0  0  0  0
    7.9990   -2.7270   26.1410 O   0  0  0  0  0  0  0  0  0  0  0  0
    6.8550   -2.2810   26.0630 C   0  0  0  0  0  0  0  0  0  0  0  0
    6.3510   -3.8810   21.6420 N   0  0  0  0  0  0  0  0  0  0  0  0
    7.3980   -3.1490   22.0230 C   0  0  0  0  0  0  0  0  0  0  0  0
    7.1230   -2.7870   23.3560 C   0  0  0  0  0  0  0  0  0  0  0  0
    5.8810   -3.1860   23.8680 C   0  0  0  0  0  0  0  0  0  0  0  0
    5.5450   -4.5290   23.6610 C   0  0  0  0  0  0  0  0  0  0  0  0
    6.0380   -5.0290   22.4720 C   0  0  0  0  0  0  0  0  0  0  0  0
    7.2080   -0.5470   28.0590 C   0  0  0  0  0  0  0  0  0  0  0  0
    6.8230    0.6590   28.6580 C   0  0  0  0  0  0  0  0  0  0  0  0
    5.8250    1.4960   28.1620 C   0  0  0  0  0  0  0  0  0  0  0  0
    5.1140    1.0580   26.8820 C   0  0  0  0  0  0  0  0  0  0  0  0
    5.5140   -0.1330   26.3150 C   0  0  0  0  0  0  0  0  0  0  0  0
    6.5010   -0.9960   26.7740 C   0  0  0  0  0  0  0  0  0  0  0  0
  1  3  1  0
  2  3  2  0
  4  6  1  0
  5  6  2  0
  3  7  1  0
  7  8  1  0
  8  9  1  0
  4 10  1  0
  9 10  1  0
 10 11  1  0
  7 12  1  0
 11 12  1  0
 13 14  2  0
 14 15  1  0
 15 16  2  0
 16 17  1  0
  6 18  1  0
 13 18  1  0
 17 18  2  0
M  END
