x1237-x0705
     RDKit          3D

 18 19  0  0  0  0  0  0  0  0999 V2000
    1.1560   -2.5260   27.7590 C   0  0  0  0  0  0  0  0  0  0  0  0
    7.3280   -1.4900   26.2420 O   0  0  0  0  0  0  0  0  0  0  0  0
    5.7560   -3.3130   19.8360 O   0  0  0  0  0  0  0  0  0  0  0  0
    6.4010   -1.8600   25.5390 C   0  0  0  0  0  0  0  0  0  0  0  0
    6.7600   -2.8930   20.4090 C   0  0  0  0  0  0  0  0  0  0  0  0
    7.5940   -1.9760   19.7820 C   0  0  0  0  0  0  0  0  0  0  0  0
    2.5230   -2.3690   27.1980 C   0  0  0  0  0  0  0  0  0  0  0  0
    2.7430   -1.4510   26.1760 C   0  0  0  0  0  0  0  0  0  0  0  0
    4.0220   -1.3010   25.6480 C   0  0  0  0  0  0  0  0  0  0  0  0
    5.0740   -2.0630   26.1380 C   0  0  0  0  0  0  0  0  0  0  0  0
    4.8650   -2.9850   27.1590 C   0  0  0  0  0  0  0  0  0  0  0  0
    3.5870   -3.1390   27.6900 C   0  0  0  0  0  0  0  0  0  0  0  0
    7.1290   -3.3030   21.6740 N   0  0  0  0  0  0  0  0  0  0  0  0
    6.1400   -3.9390   22.5120 C   0  0  0  0  0  0  0  0  0  0  0  0
    5.4980   -2.8490   23.3420 C   0  0  0  0  0  0  0  0  0  0  0  0
    6.5530   -2.1090   24.1050 N   0  0  0  0  0  0  0  0  0  0  0  0
    7.8720   -2.5140   23.7960 C   0  0  0  0  0  0  0  0  0  0  0  0
    8.1450   -2.5420   22.4280 C   0  0  0  0  0  0  0  0  0  0  0  0
  2  4  2  0
  3  5  2  0
  5  6  1  0
  1  7  1  0
  7  8  2  0
  8  9  1  0
  4 10  1  0
  9 10  2  0
 10 11  1  0
  7 12  1  0
 11 12  2  0
  5 13  1  0
 13 14  1  0
 14 15  1  0
  4 16  1  0
 15 16  1  0
 16 17  1  0
 13 18  1  0
 17 18  1  0
M  END
