x1237-x1412
     RDKit          3D

 14 15  0  0  0  0  0  0  0  0999 V2000
   15.7630  -25.8860    7.3620 C   0  0  0  0  0  0  0  0  0  0  0  0
   15.2690  -28.4290    7.5680 O   0  0  0  0  0  0  0  0  0  0  0  0
   16.2940  -27.5310    5.3860 C   0  0  0  0  0  0  0  0  0  0  0  0
   17.6490  -27.6310    7.5690 O   0  0  0  0  0  0  0  0  0  0  0  0
   16.2880  -27.5290    7.0890 S   0  0  0  0  0  0  0  0  0  0  0  0
   14.5780  -25.8040    4.4720 N   0  0  0  0  0  0  0  0  0  0  0  0
   15.0560  -27.1500    4.8280 C   0  0  0  0  0  0  0  0  0  0  0  0
   13.9820  -28.1070    4.4740 N   0  0  0  0  0  0  0  0  0  0  0  0
   12.9430  -27.4590    3.9350 C   0  0  0  0  0  0  0  0  0  0  0  0
   13.2780  -26.1190    3.9310 C   0  0  0  0  0  0  0  0  0  0  0  0
   12.4480  -25.1330    3.4450 C   0  0  0  0  0  0  0  0  0  0  0  0
   11.2130  -25.5280    2.9240 C   0  0  0  0  0  0  0  0  0  0  0  0
   10.8490  -26.8810    2.9140 C   0  0  0  0  0  0  0  0  0  0  0  0
   11.7120  -27.8470    3.4260 C   0  0  0  0  0  0  0  0  0  0  0  0
  5  1  1  0
  2  5  2  0
  3  5  1  0
  4  5  2  0
  3  7  1  0
  6  7  1  0
  7  8  2  0
  8  9  1  0
  6 10  1  0
  9 10  2  0
 10 11  1  0
 11 12  2  0
 12 13  1  0
  9 14  1  0
 13 14  2  0
M  END
