x1249-x0425
     RDKit          3D

 18 19  0  0  0  0  0  0  0  0999 V2000
    8.1370    0.5640   24.8570 N   0  0  0  0  0  0  0  0  0  0  0  0
    7.4740    1.4240   24.0360 C   0  0  0  0  0  0  0  0  0  0  0  0
    8.0260    2.3800   23.5000 O   0  0  0  0  0  0  0  0  0  0  0  0
    9.4770    0.8860   25.2590 C   0  0  0  0  0  0  0  0  0  0  0  0
   13.6160   -2.2130   20.7220 N   0  0  0  0  0  0  0  0  0  0  0  0
   12.9730   -1.5680   21.6460 C   0  0  0  0  0  0  0  0  0  0  0  0
    3.3120    0.9030   23.5720 O   0  0  0  0  0  0  0  0  0  0  0  0
    4.1130    0.9910   22.3870 C   0  0  0  0  0  0  0  0  0  0  0  0
    5.4790    1.6450   22.6250 C   0  0  0  0  0  0  0  0  0  0  0  0
    6.1430    1.1330   23.8670 N   0  0  0  0  0  0  0  0  0  0  0  0
    5.1950    0.8770   25.0190 C   0  0  0  0  0  0  0  0  0  0  0  0
    3.9820    0.2400   24.6430 C   0  0  0  0  0  0  0  0  0  0  0  0
   11.5830    0.9870   23.8710 C   0  0  0  0  0  0  0  0  0  0  0  0
   12.4530    0.3860   22.9830 C   0  0  0  0  0  0  0  0  0  0  0  0
   12.1700   -0.9010   22.5510 C   0  0  0  0  0  0  0  0  0  0  0  0
   11.0400   -1.6020   22.9970 C   0  0  0  0  0  0  0  0  0  0  0  0
   10.1980   -0.9910   23.8760 C   0  0  0  0  0  0  0  0  0  0  0  0
   10.4470    0.2810   24.3130 C   0  0  0  0  0  0  0  0  0  0  0  0
  1  2  1  0
  2  3  2  0
  1  4  1  0
  5  6  3  0
  7  8  1  0
  8  9  1  0
  2 10  1  0
  9 10  1  0
 10 11  1  0
  7 12  1  0
 11 12  1  0
 13 14  2  0
  6 15  1  0
 14 15  1  0
 15 16  2  0
 16 17  1  0
  4 18  1  0
 13 18  1  0
 17 18  2  0
M  END
