x1249-x0354
     RDKit          3D

 28 30  0  0  0  0  0  0  0  0999 V2000
    7.9870    0.1550   25.4560 C   0  0  1  0  0  0  0  0  0  0  0  0
    7.4110    1.2180   24.4900 C   0  0  0  0  0  0  0  0  0  0  0  0
    8.1330    2.0300   23.9090 O   0  0  0  0  0  0  0  0  0  0  0  0
    9.4740    0.5110   25.6510 C   0  0  0  0  0  0  0  0  0  0  0  0
   13.8050   -1.7640   20.6090 N   0  0  0  0  0  0  0  0  0  0  0  0
   13.0480   -1.3620   21.6630 C   0  0  0  0  0  0  0  0  0  0  0  0
    7.3950   -0.0710   26.7840 O   0  0  0  0  0  0  0  0  0  0  0  0
    5.7170    3.5240   30.8790 C   0  0  0  0  0  0  0  0  0  0  0  0
    7.5740   -2.2600   25.2740 O   0  0  0  0  0  0  0  0  0  0  0  0
    7.9950   -1.2150   24.7720 C   0  0  0  0  0  0  0  0  0  0  0  0
    3.4480    1.4190   23.7890 O   0  0  0  0  0  0  0  0  0  0  0  0
    4.3860    1.7400   22.7510 C   0  0  0  0  0  0  0  0  0  0  0  0
    5.6000    1.0610   22.8980 C   0  0  0  0  0  0  0  0  0  0  0  0
    6.0570    1.1870   24.2910 N   0  0  0  0  0  0  0  0  0  0  0  0
    5.0800    0.7820   25.3030 C   0  0  0  0  0  0  0  0  0  0  0  0
    3.8900    0.4110   24.7060 C   0  0  0  0  0  0  0  0  0  0  0  0
   11.4400    0.8850   24.0140 C   0  0  0  0  0  0  0  0  0  0  0  0
   12.3100    0.4230   23.0510 C   0  0  0  0  0  0  0  0  0  0  0  0
   12.2020   -0.8810   22.6370 C   0  0  0  0  0  0  0  0  0  0  0  0
   11.2540   -1.7150   23.1750 C   0  0  0  0  0  0  0  0  0  0  0  0
   10.3950   -1.2660   24.1310 C   0  0  0  0  0  0  0  0  0  0  0  0
   10.4480    0.0360   24.5850 C   0  0  0  0  0  0  0  0  0  0  0  0
    7.6110    2.1270   27.8890 C   0  0  0  0  0  0  0  0  0  0  0  0
    7.1780    2.9850   28.9080 C   0  0  0  0  0  0  0  0  0  0  0  0
    6.1760    2.5890   29.7940 C   0  0  0  0  0  0  0  0  0  0  0  0
    5.6070    1.3130   29.6560 C   0  0  0  0  0  0  0  0  0  0  0  0
    6.0570    0.4590   28.6260 C   0  0  0  0  0  0  0  0  0  0  0  0
    7.0590    0.8680   27.7410 C   0  0  0  0  0  0  0  0  0  0  0  0
  1  2  1  0
  2  3  2  0
  1  4  1  1
  5  6  3  0
  1  7  1  0
  1 10  1  0
  9 10  2  0
 11 12  1  0
 12 13  1  0
  2 14  1  0
 13 14  1  0
 14 15  1  0
 11 16  1  0
 15 16  1  0
 17 18  2  0
  6 19  1  0
 18 19  1  0
 19 20  2  0
 20 21  1  0
  4 22  1  0
 17 22  1  0
 21 22  2  0
 23 24  2  0
  8 25  1  0
 24 25  1  0
 25 26  2  0
 26 27  1  0
  7 28  1  0
 23 28  1  0
 27 28  2  0
M  END
