x1308-x0689
     RDKit          3D

 19 20  0  0  0  0  0  0  0  0999 V2000
    6.8820   -2.9580   21.1270 C   0  0  0  0  0  0  0  0  0  0  0  0
    5.5620   -4.5970   19.9630 O   0  0  0  0  0  0  0  0  0  0  0  0
    0.7320   -1.2180   26.4440 Cl  0  0  0  0  0  0  0  0  0  0  0  0
    6.3230   -4.3400   20.9080 C   0  0  0  0  0  0  0  0  0  0  0  0
    6.3350   -5.0300   26.8660 O   0  0  0  0  0  0  0  0  0  0  0  0
    4.6400   -6.7620   26.1150 O   0  0  0  0  0  0  0  0  0  0  0  0
    5.2560   -5.4600   26.0060 S   0  0  0  0  0  0  0  0  0  0  0  0
    6.7570   -5.2380   21.8510 N   0  0  0  0  0  0  0  0  0  0  0  0
    7.5920   -4.7590   22.9320 C   0  0  0  0  0  0  0  0  0  0  0  0
    6.7490   -4.2630   24.0830 C   0  0  0  0  0  0  0  0  0  0  0  0
    5.7750   -5.3270   24.3990 N   0  0  0  0  0  0  0  0  0  0  0  0
    5.0170   -5.8290   23.3490 C   0  0  0  0  0  0  0  0  0  0  0  0
    5.7820   -6.2680   22.2730 C   0  0  0  0  0  0  0  0  0  0  0  0
    4.3050   -2.9820   26.4840 C   0  0  0  0  0  0  0  0  0  0  0  0
    3.2860   -2.0430   26.5770 C   0  0  0  0  0  0  0  0  0  0  0  0
    1.9800   -2.3890   26.3070 C   0  0  0  0  0  0  0  0  0  0  0  0
    1.6760   -3.7000   25.9250 C   0  0  0  0  0  0  0  0  0  0  0  0
    2.6940   -4.6560   25.8270 C   0  0  0  0  0  0  0  0  0  0  0  0
    4.0130   -4.2950   26.1120 C   0  0  0  0  0  0  0  0  0  0  0  0
  1  4  1  0
  2  4  2  0
  5  7  2  0
  6  7  2  0
  4  8  1  0
  8  9  1  0
  9 10  1  0
  7 11  1  0
 10 11  1  0
 11 12  1  0
  8 13  1  0
 12 13  1  0
 14 15  2  0
  3 16  1  0
 15 16  1  0
 16 17  2  0
 17 18  1  0
  7 19  1  0
 14 19  1  0
 18 19  2  0
M  END
