x1308-x1385
     RDKit          3D

 32 36  0  0  0  0  0  0  0  0999 V2000
    6.8840   -2.9000   20.3840 C   0  0  1  0  0  0  0  0  0  0  0  0
    5.5690   -4.8660   19.9710 O   0  0  0  0  0  0  0  0  0  0  0  0
    0.6030   -1.1560   26.4770 Cl  0  0  0  0  0  0  0  0  0  0  0  0
    6.3870   -4.2830   20.6910 C   0  0  0  0  0  0  0  0  0  0  0  0
    6.1170   -5.1050   26.6950 O   0  0  0  0  0  0  0  0  0  0  0  0
    4.4900   -6.7110   25.6150 O   0  0  0  0  0  0  0  0  0  0  0  0
    5.1160   -5.4110   25.7130 S   0  0  0  0  0  0  0  0  0  0  0  0
    6.2530   -2.3590   19.1380 C   0  0  0  0  0  0  0  0  0  0  0  0
    9.4660   -3.0640   24.1160 C   0  0  0  0  0  0  0  0  0  0  0  0
    7.2580   -5.8060   28.6390 Br  0  0  0  0  0  0  0  0  0  0  0  0
    6.9670   -4.8050   21.8280 N   0  0  0  0  0  0  0  0  0  0  0  0
    7.2920   -3.8840   22.8890 C   0  0  2  0  0  0  0  0  0  0  0  0
    6.9660   -4.4500   24.1100 C   0  0  0  0  0  0  0  0  0  0  0  0
    5.7000   -4.9960   24.1650 N   0  0  0  0  0  0  0  0  0  0  0  0
    5.3770   -5.9210   23.1890 C   0  0  0  0  0  0  0  0  0  0  0  0
    6.4260   -6.0870   22.2800 C   0  0  0  0  0  0  0  0  0  0  0  0
    4.1820   -2.9090   26.3410 C   0  0  0  0  0  0  0  0  0  0  0  0
    3.1660   -1.9700   26.5060 C   0  0  0  0  0  0  0  0  0  0  0  0
    1.8410   -2.3250   26.2600 C   0  0  0  0  0  0  0  0  0  0  0  0
    1.5000   -3.6130   25.8470 C   0  0  0  0  0  0  0  0  0  0  0  0
    2.5260   -4.5520   25.6840 C   0  0  0  0  0  0  0  0  0  0  0  0
    3.8420   -4.2050   25.9290 C   0  0  0  0  0  0  0  0  0  0  0  0
    6.7040   -1.9750   21.3840 N   0  0  0  0  0  0  0  0  0  0  0  0
    6.3340   -2.6670   22.6410 C   0  0  0  0  0  0  0  0  0  0  0  0
    8.7410   -3.4010   22.8600 N   0  0  0  0  0  0  0  0  0  0  0  0
    9.0800   -2.3870   21.8380 C   0  0  0  0  0  0  0  0  0  0  0  0
    7.9990   -1.3460   21.6190 C   0  0  0  0  0  0  0  0  0  0  0  0
    9.8270   -5.4130   25.4370 C   0  0  0  0  0  0  0  0  0  0  0  0
    9.2060   -4.0680   25.1840 C   0  0  0  0  0  0  0  0  0  0  0  0
    8.0260   -3.7910   26.3870 S   0  0  0  0  0  0  0  0  0  0  0  0
    8.2900   -5.2930   27.1300 C   0  0  0  0  0  0  0  0  0  0  0  0
    9.2830   -6.0770   26.5430 C   0  0  0  0  0  0  0  0  0  0  0  0
  1  4  1  0
  2  4  2  0
  5  7  2  0
  6  7  2  0
  1  8  1  6
  4 11  1  0
 11 12  1  0
 12 13  1  1
  7 14  1  0
 13 14  1  0
 14 15  1  0
 11 16  1  0
 15 16  1  0
 17 18  2  0
  3 19  1  0
 18 19  1  0
 19 20  2  0
 20 21  1  0
  7 22  1  0
 17 22  1  0
 21 22  2  0
  1 23  1  0
 12 24  1  0
 23 24  1  0
  9 25  1  0
 12 25  1  0
 25 26  1  0
 23 27  1  0
 26 27  1  0
  9 29  1  0
 28 29  2  0
 29 30  1  0
 10 31  1  0
 30 31  1  0
 28 32  1  0
 31 32  2  0
M  END
