
     RDKit          3D

 20 21  0  0  0  0  0  0  0  0999 V2000
    7.4070   -2.4160   23.7460 N   0  0  0  0  0  0  0  0  0  0  0  0
    6.0030   -5.0980   29.1310 C   0  0  0  0  0  0  0  0  0  0  0  0
    8.5600   -0.9700   25.3950 O   0  0  0  0  0  0  0  0  0  0  0  0
    7.0160   -4.7240   28.0780 C   0  0  0  0  0  0  0  0  0  0  0  0
    7.1450   -3.3170   21.1010 N   0  0  0  0  0  0  0  0  0  0  0  0
    6.1260   -1.3700   25.5780 O   0  0  0  0  0  0  0  0  0  0  0  0
    8.1650   -5.4730   27.8960 C   0  0  0  0  0  0  0  0  0  0  0  0
    5.7350   -4.2720   19.6130 O   0  0  0  0  0  0  0  0  0  0  0  0
    9.0980   -5.1340   26.9310 C   0  0  0  0  0  0  0  0  0  0  0  0
    8.9120   -4.0250   26.1090 C   0  0  0  0  0  0  0  0  0  0  0  0
    9.9640   -3.7170   25.0780 C   0  0  0  0  0  0  0  0  0  0  0  0
    7.7510   -3.2640   26.3010 C   0  0  0  0  0  0  0  0  0  0  0  0
    6.8170   -3.6180   27.2640 C   0  0  0  0  0  0  0  0  0  0  0  0
    7.8230   -1.5280   22.6500 C   0  0  0  0  0  0  0  0  0  0  0  0
    8.2120   -2.3770   21.4650 C   0  0  0  0  0  0  0  0  0  0  0  0
    6.6890   -4.1330   22.2270 C   0  0  0  0  0  0  0  0  0  0  0  0
    6.2570   -3.2460   23.3620 C   0  0  0  0  0  0  0  0  0  0  0  0
    6.6240   -3.4670   19.8620 C   0  0  0  0  0  0  0  0  0  0  0  0
    7.2000   -2.6260   18.7550 C   0  0  0  0  0  0  0  0  0  0  0  0
    7.4410   -1.8520   25.2840 S   0  0  1  0  0  0  0  0  0  0  0  0
  1 14  1  0
  1 17  1  0
  1 20  1  0
  2  4  1  0
  3 20  2  0
  4  7  2  0
  4 13  1  0
  5 15  1  0
  5 16  1  0
  5 18  1  0
  6 20  2  0
  7  9  1  0
  8 18  2  0
  9 10  2  0
 10 11  1  0
 10 12  1  0
 12 13  2  0
 20 12  1  1
 14 15  1  0
 16 17  1  0
 18 19  1  0
M  END
