x1334-x1458
     RDKit          3D

 22 24  0  0  0  0  0  0  0  0999 V2000
    6.8120   -3.3060   26.5980 C   0  0  2  0  0  0  0  0  0  0  0  0
    4.5190   -3.0770   25.6650 O   0  0  0  0  0  0  0  0  0  0  0  0
    6.9840   -4.6000   27.4600 C   0  0  0  0  0  0  0  0  0  0  0  0
    5.3670   -4.9240   19.7860 O   0  0  0  0  0  0  0  0  0  0  0  0
    6.1820   -4.8640   28.4260 C   0  0  0  0  0  0  0  0  0  0  0  0
    7.1040   -1.9780   27.2700 C   0  0  0  0  0  0  0  0  0  0  0  0
    5.7070   -3.3650   25.4600 C   0  0  0  0  0  0  0  0  0  0  0  0
    6.0320   -4.0550   20.3220 C   0  0  0  0  0  0  0  0  0  0  0  0
    6.1970   -2.7240   19.6220 C   0  0  0  0  0  0  0  0  0  0  0  0
    6.7380   -1.7140   18.8240 C   0  0  0  0  0  0  0  0  0  0  0  0
    9.7290   -3.2570   23.7490 C   0  0  0  0  0  0  0  0  0  0  0  0
    6.6530   -4.2710   21.5430 N   0  0  0  0  0  0  0  0  0  0  0  0
    7.4590   -3.2230   22.1410 C   0  0  0  0  0  0  0  0  0  0  0  0
    6.9950   -2.9390   23.4350 C   0  0  0  0  0  0  0  0  0  0  0  0
    6.0390   -3.7840   24.0230 C   0  0  0  0  0  0  0  0  0  0  0  0
    6.2460   -5.1440   23.6890 C   0  0  0  0  0  0  0  0  0  0  0  0
    6.4700   -5.4750   22.3510 C   0  0  0  0  0  0  0  0  0  0  0  0
    9.9850   -5.4770   25.2600 C   0  0  0  0  0  0  0  0  0  0  0  0
    9.3900   -4.2050   24.8370 C   0  0  0  0  0  0  0  0  0  0  0  0
    8.1410   -4.1350   25.9880 S   0  0  0  0  0  0  0  0  0  0  0  0
    8.0790   -5.4360   27.0730 C   0  0  0  0  0  0  0  0  0  0  0  0
    9.3350   -6.0190   26.3290 C   0  0  0  0  0  0  0  0  0  0  0  0
  1  3  1  0
  3  5  1  0
  1  6  1  1
  1  7  1  0
  2  7  2  0
  4  8  2  0
  8  9  1  0
  9 10  1  0
  8 12  1  0
 12 13  1  0
 13 14  1  0
  7 15  1  0
 14 15  1  0
 15 16  1  0
 12 17  1  0
 16 17  1  0
 11 19  1  0
 18 19  1  0
  1 20  1  0
 19 20  2  0
  3 21  2  0
 20 21  1  0
 18 22  2  0
 21 22  1  0
M  END
