x1348-x0165
     RDKit          3D

 15 16  0  0  0  0  0  0  0  0999 V2000
    7.0440   -3.5940   21.3530 N   0  0  0  0  0  0  0  0  0  0  0  0
    7.9490   -5.0330   27.4430 C   0  0  0  0  0  0  0  0  0  0  0  0
    7.3890   -4.5570   26.4520 O   0  0  0  0  0  0  0  0  0  0  0  0
    5.3480   -4.1180   19.7290 O   0  0  0  0  0  0  0  0  0  0  0  0
    6.2320   -3.3790   20.1590 C   0  0  0  0  0  0  0  0  0  0  0  0
    6.6180   -2.1280   19.4040 C   0  0  0  0  0  0  0  0  0  0  0  0
    6.3570   -5.2740   25.8830 C   0  0  0  0  0  0  0  0  0  0  0  0
    6.1570   -5.1140   24.5010 C   0  0  0  0  0  0  0  0  0  0  0  0
    5.1370   -5.8150   23.8530 C   0  0  0  0  0  0  0  0  0  0  0  0
    4.3010   -6.6740   24.5660 C   0  0  0  0  0  0  0  0  0  0  0  0
    4.4850   -6.8350   25.9430 C   0  0  0  0  0  0  0  0  0  0  0  0
    5.5100   -6.1390   26.5930 C   0  0  0  0  0  0  0  0  0  0  0  0
    6.8950   -4.2900   23.6540 N   0  0  0  0  0  0  0  0  0  0  0  0
    6.4390   -4.3790   22.4300 C   0  0  0  0  0  0  0  0  0  0  0  0
    5.1370   -5.4300   22.1820 S   0  0  0  0  0  0  0  0  0  0  0  0
  2  3  1  0
  1  5  1  0
  4  5  2  0
  5  6  1  0
  3  7  1  0
  7  8  2  0
  8  9  1  0
  9 10  2  0
 10 11  1  0
  7 12  1  0
 11 12  2  0
  8 13  1  0
  1 14  1  0
 13 14  2  0
  9 15  1  0
 14 15  1  0
M  END
