x1358-x0350
     RDKit          3D

 19 20  0  0  0  0  0  0  0  0999 V2000
    6.8270   -2.6210   25.9180 N   0  0  0  0  0  0  0  0  0  0  0  0
    5.4380    0.0600   25.3830 O   0  0  0  0  0  0  0  0  0  0  0  0
    4.6520   -3.2470   25.5530 O   0  0  0  0  0  0  0  0  0  0  0  0
    5.1910   -4.4020   19.4820 O   0  0  0  0  0  0  0  0  0  0  0  0
    5.8080   -3.0590   25.1260 C   0  0  0  0  0  0  0  0  0  0  0  0
    5.8830   -3.5460   20.0080 C   0  0  0  0  0  0  0  0  0  0  0  0
    6.2710   -2.2520   19.2540 C   0  0  0  0  0  0  0  0  0  0  0  0
    5.9440   -0.1700   26.4700 C   0  0  0  0  0  0  0  0  0  0  0  0
    6.6320   -1.4630   26.7940 C   0  0  0  0  0  0  0  0  0  0  0  0
    7.1310   -1.4770   28.1330 C   0  0  0  0  0  0  0  0  0  0  0  0
    7.0290   -0.3730   29.1530 C   0  0  0  0  0  0  0  0  0  0  0  0
    6.4120    0.7660   28.8310 C   0  0  0  0  0  0  0  0  0  0  0  0
    5.8190    0.9750   27.4830 C   0  0  0  0  0  0  0  0  0  0  0  0
    6.3710   -3.7500   21.2730 N   0  0  0  0  0  0  0  0  0  0  0  0
    7.5710   -3.0320   21.7490 C   0  0  0  0  0  0  0  0  0  0  0  0
    7.4870   -2.8710   23.2620 C   0  0  0  0  0  0  0  0  0  0  0  0
    6.0940   -3.3410   23.6420 C   0  0  0  0  0  0  0  0  0  0  0  0
    5.8910   -4.7780   23.3110 C   0  0  0  0  0  0  0  0  0  0  0  0
    6.0100   -4.9960   21.9590 C   0  0  0  0  0  0  0  0  0  0  0  0
  1  5  1  0
  3  5  2  0
  4  6  2  0
  6  7  1  0
  2  8  1  0
  1  9  1  0
  8  9  2  0
  9 10  1  0
 10 11  2  0
 11 12  1  0
  8 13  1  0
 12 13  2  0
  6 14  1  0
 14 15  1  0
 15 16  1  0
  5 17  1  0
 16 17  1  0
 17 18  1  0
 14 19  1  0
 18 19  1  0
M  END
