x1375-x1226
     RDKit          3D

 18 19  0  0  0  0  0  0  0  0999 V2000
    5.6370   -4.6560   20.0000 O   0  0  0  0  0  0  0  0  0  0  0  0
    6.2170   -4.0930   20.9470 C   0  0  0  0  0  0  0  0  0  0  0  0
    7.1230   -2.9210   20.6790 C   0  0  0  0  0  0  0  0  0  0  0  0
    6.0660   -4.5110   22.3360 N   0  0  0  0  0  0  0  0  0  0  0  0
    2.4050   -6.7370   23.9570 O   0  0  0  0  0  0  0  0  0  0  0  0
    4.4160   -7.7760   25.0230 O   0  0  0  0  0  0  0  0  0  0  0  0
   10.5700   -5.1360   25.6880 F   0  0  0  0  0  0  0  0  0  0  0  0
    7.6290   -3.3620   23.9950 C   0  0  0  0  0  0  0  0  0  0  0  0
    8.8700   -3.5950   24.9000 C   0  0  0  0  0  0  0  0  0  0  0  0
    9.5280   -4.8740   24.9410 C   0  0  0  0  0  0  0  0  0  0  0  0
    8.9970   -5.8610   24.1260 C   0  0  0  0  0  0  0  0  0  0  0  0
    7.8770   -5.3750   23.4220 C   0  0  0  0  0  0  0  0  0  0  0  0
    7.1990   -4.4510   23.2400 C   0  0  0  0  0  0  0  0  0  0  0  0
    4.6640   -4.3680   24.1910 C   0  0  0  0  0  0  0  0  0  0  0  0
    4.7620   -4.9620   22.9260 C   0  0  2  0  0  0  0  0  0  0  0  0
    4.7430   -6.3570   22.8520 C   0  0  0  0  0  0  0  0  0  0  0  0
    3.8060   -6.6980   24.3100 S   0  0  0  0  0  0  0  0  0  0  0  0
    4.1420   -5.1600   25.1370 C   0  0  0  0  0  0  0  0  0  0  0  0
  1  2  2  0
  2  3  1  0
  2  4  1  0
  8  9  2  0
  7 10  1  0
  9 10  1  0
 10 11  2  0
 11 12  1  0
  4 13  1  0
  8 13  1  0
 12 13  2  0
 15  4  1  1
 14 15  1  0
 15 16  1  0
 17  5  1  0
  6 17  1  0
 16 17  1  0
 14 18  2  0
 17 18  1  0
M  END
