x1382-x0887
     RDKit          3D

 13 13  0  0  0  0  0  0  0  0999 V2000
   13.3550   -1.7970   21.2260 Cl  0  0  0  0  0  0  0  0  0  0  0  0
    7.6820   -1.2790   23.6330 C   0  0  0  0  0  0  0  0  0  0  0  0
    8.7410   -2.1450   23.0200 C   0  0  1  0  0  0  0  0  0  0  0  0
    8.4550   -2.5600   21.7260 N   0  0  0  0  0  0  0  0  0  0  0  0
    8.0140   -1.5410   20.7640 C   0  0  0  0  0  0  0  0  0  0  0  0
    8.1510   -0.3310   20.9350 O   0  0  0  0  0  0  0  0  0  0  0  0
    7.3360   -2.0730   19.4980 C   0  0  0  0  0  0  0  0  0  0  0  0
   10.0980   -1.4730   22.9910 C   0  0  0  0  0  0  0  0  0  0  0  0
   11.0510   -1.9630   22.1360 C   0  0  0  0  0  0  0  0  0  0  0  0
   12.2190   -1.1570   22.3010 C   0  0  0  0  0  0  0  0  0  0  0  0
   12.6910   -0.1170   22.9820 C   0  0  0  0  0  0  0  0  0  0  0  0
   11.7170    0.3430   23.8220 C   0  0  0  0  0  0  0  0  0  0  0  0
   10.4250   -0.3220   23.8350 C   0  0  0  0  0  0  0  0  0  0  0  0
  3  2  1  6
  3  4  1  0
  4  5  1  0
  5  6  2  0
  5  7  1  0
  3  8  1  0
  8  9  2  0
  1 10  1  0
  9 10  1  0
 10 11  2  0
 11 12  1  0
  8 13  1  0
 12 13  2  0
M  END
