x1382-x0194
     RDKit          3D

 13 13  0  0  0  0  0  0  0  0999 V2000
   13.3540   -1.7980   21.2260 Cl  0  0  0  0  0  0  0  0  0  0  0  0
    7.6750   -1.2530   23.6510 C   0  0  0  0  0  0  0  0  0  0  0  0
    8.7350   -2.1260   23.0410 C   0  0  1  0  0  0  0  0  0  0  0  0
    8.4450   -2.5510   21.7510 N   0  0  0  0  0  0  0  0  0  0  0  0
    8.0120   -1.5450   20.7720 C   0  0  0  0  0  0  0  0  0  0  0  0
    8.1450   -0.3320   20.9320 O   0  0  0  0  0  0  0  0  0  0  0  0
    7.3470   -2.0880   19.5100 C   0  0  0  0  0  0  0  0  0  0  0  0
   10.0960   -1.4620   23.0000 C   0  0  0  0  0  0  0  0  0  0  0  0
   11.0460   -1.9570   22.1400 C   0  0  0  0  0  0  0  0  0  0  0  0
   12.2160   -1.1570   22.3000 C   0  0  0  0  0  0  0  0  0  0  0  0
   12.6940   -0.1200   22.9770 C   0  0  0  0  0  0  0  0  0  0  0  0
   11.7250    0.3480   23.8200 C   0  0  0  0  0  0  0  0  0  0  0  0
   10.4310   -0.3120   23.8400 C   0  0  0  0  0  0  0  0  0  0  0  0
  3  2  1  6
  3  4  1  0
  4  5  1  0
  5  6  2  0
  5  7  1  0
  3  8  1  0
  8  9  2  0
  1 10  1  0
  9 10  1  0
 10 11  2  0
 11 12  1  0
  8 13  1  0
 12 13  2  0
M  END
