x1402-x0398
     RDKit          3D

 18 19  0  0  0  0  0  0  0  0999 V2000
    7.3630   -3.1020   20.8470 C   0  0  0  0  0  0  0  0  0  0  0  0
    5.4790   -4.4770   19.9260 O   0  0  0  0  0  0  0  0  0  0  0  0
    0.7250   -1.2860   26.1860 Cl  0  0  0  0  0  0  0  0  0  0  0  0
    6.4450   -4.3230   20.8800 C   0  0  0  0  0  0  0  0  0  0  0  0
    3.9650   -6.4190   25.9820 O   0  0  0  0  0  0  0  0  0  0  0  0
    5.9730   -5.1880   26.8570 O   0  0  0  0  0  0  0  0  0  0  0  0
    4.9240   -5.3390   25.8770 S   0  0  0  0  0  0  0  0  0  0  0  0
    6.6550   -5.2470   21.8910 N   0  0  0  0  0  0  0  0  0  0  0  0
    7.3090   -4.7440   22.9350 C   0  0  0  0  0  0  0  0  0  0  0  0
    6.4530   -4.3210   23.9310 C   0  0  0  0  0  0  0  0  0  0  0  0
    5.6660   -5.4330   24.3550 N   0  0  0  0  0  0  0  0  0  0  0  0
    4.8270   -6.0050   23.2460 C   0  0  0  0  0  0  0  0  0  0  0  0
    5.6870   -6.2570   22.1690 C   0  0  0  0  0  0  0  0  0  0  0  0
    2.2960   -3.8060   25.9980 S   0  0  0  0  0  0  0  0  0  0  0  0
    4.0260   -3.8070   25.9660 C   0  0  0  0  0  0  0  0  0  0  0  0
    4.5720   -2.5290   26.0210 C   0  0  0  0  0  0  0  0  0  0  0  0
    3.6270   -1.5320   26.0920 C   0  0  0  0  0  0  0  0  0  0  0  0
    2.2240   -2.1110   26.0940 C   0  0  0  0  0  0  0  0  0  0  0  0
  1  4  1  0
  2  4  2  0
  5  7  2  0
  6  7  2  0
  4  8  1  0
  8  9  1  0
  9 10  1  0
  7 11  1  0
 10 11  1  0
 11 12  1  0
  8 13  1  0
 12 13  1  0
  7 15  1  0
 14 15  1  0
 15 16  2  0
 16 17  1  0
  3 18  1  0
 14 18  1  0
 17 18  2  0
M  END
