x1402-x0104
     RDKit          3D

 18 19  0  0  0  0  0  0  0  0999 V2000
    7.3630   -3.1150   20.8330 C   0  0  0  0  0  0  0  0  0  0  0  0
    5.4820   -4.4930   19.9230 O   0  0  0  0  0  0  0  0  0  0  0  0
    0.7220   -1.2890   26.1710 Cl  0  0  0  0  0  0  0  0  0  0  0  0
    6.4510   -4.3350   20.8710 C   0  0  0  0  0  0  0  0  0  0  0  0
    3.9620   -6.4060   25.9670 O   0  0  0  0  0  0  0  0  0  0  0  0
    5.9740   -5.1930   26.8540 O   0  0  0  0  0  0  0  0  0  0  0  0
    4.9260   -5.3340   25.8710 S   0  0  0  0  0  0  0  0  0  0  0  0
    6.6630   -5.2590   21.8800 N   0  0  0  0  0  0  0  0  0  0  0  0
    7.3200   -4.7540   22.9200 C   0  0  0  0  0  0  0  0  0  0  0  0
    6.4710   -4.3290   23.9250 C   0  0  0  0  0  0  0  0  0  0  0  0
    5.6710   -5.4330   24.3470 N   0  0  0  0  0  0  0  0  0  0  0  0
    4.8280   -6.0000   23.2360 C   0  0  0  0  0  0  0  0  0  0  0  0
    5.6890   -6.2610   22.1610 C   0  0  0  0  0  0  0  0  0  0  0  0
    2.3030   -3.8010   25.9780 S   0  0  0  0  0  0  0  0  0  0  0  0
    4.0340   -3.7970   25.9560 C   0  0  0  0  0  0  0  0  0  0  0  0
    4.5810   -2.5170   26.0150 C   0  0  0  0  0  0  0  0  0  0  0  0
    3.6300   -1.5260   26.0860 C   0  0  0  0  0  0  0  0  0  0  0  0
    2.2270   -2.1060   26.0820 C   0  0  0  0  0  0  0  0  0  0  0  0
  1  4  1  0
  2  4  2  0
  5  7  2  0
  6  7  2  0
  4  8  1  0
  8  9  1  0
  9 10  1  0
  7 11  1  0
 10 11  1  0
 11 12  1  0
  8 13  1  0
 12 13  1  0
  7 15  1  0
 14 15  1  0
 15 16  2  0
 16 17  1  0
  3 18  1  0
 14 18  1  0
 17 18  2  0
M  END
