x1402-x1458
     RDKit          3D

 24 26  0  0  0  0  0  0  0  0999 V2000
    7.3680   -3.4060   26.5070 N   0  0  0  0  0  0  0  0  0  0  0  0
    8.9750   -4.8460   27.7190 C   0  0  0  0  0  0  0  0  0  0  0  0
    5.2020   -3.8290   25.8510 N   0  0  0  0  0  0  0  0  0  0  0  0
    7.8420   -4.7760   26.7090 C   0  0  1  0  0  0  0  0  0  0  0  0
    5.3160   -4.7970   19.6560 O   0  0  0  0  0  0  0  0  0  0  0  0
    6.6870   -5.6620   27.0700 C   0  0  0  0  0  0  0  0  0  0  0  0
    6.8650   -2.8020   27.7320 C   0  0  0  0  0  0  0  0  0  0  0  0
    6.5260   -3.3040   25.4490 C   0  0  2  0  0  0  0  0  0  0  0  0
    5.8700   -3.8560   20.1890 C   0  0  0  0  0  0  0  0  0  0  0  0
    5.9990   -2.6210   19.5330 C   0  0  0  0  0  0  0  0  0  0  0  0
    0.4700   -1.2320   26.3220 Cl  0  0  0  0  0  0  0  0  0  0  0  0
    4.3230   -6.8810   26.8340 O   0  0  0  0  0  0  0  0  0  0  0  0
    5.2880   -5.9720   26.2600 S   0  0  0  0  0  0  0  0  0  0  0  0
    6.4000   -3.9790   21.4470 N   0  0  0  0  0  0  0  0  0  0  0  0
    7.5070   -3.1340   21.8790 C   0  0  0  0  0  0  0  0  0  0  0  0
    7.3530   -2.7510   23.2060 C   0  0  0  0  0  0  0  0  0  0  0  0
    6.9100   -3.8230   24.1990 C   0  0  0  0  0  0  0  0  0  0  0  0
    5.9460   -4.9070   23.7190 C   0  0  0  0  0  0  0  0  0  0  0  0
    6.0260   -5.1730   22.2060 C   0  0  0  0  0  0  0  0  0  0  0  0
    2.1450   -3.2960   25.0860 S   0  0  0  0  0  0  0  0  0  0  0  0
    3.7580   -3.6950   25.3780 C   0  0  0  0  0  0  0  0  0  0  0  0
    4.3300   -2.7890   26.4430 C   0  0  0  0  0  0  0  0  0  0  0  0
    3.2130   -1.8320   26.8590 C   0  0  0  0  0  0  0  0  0  0  0  0
    1.9500   -2.0640   26.1410 C   0  0  0  0  0  0  0  0  0  0  0  0
  1  4  1  0
  4  2  1  1
  4  6  1  0
  1  7  1  0
  8  1  1  1
  3  8  1  0
  5  9  2  0
  9 10  1  0
  6 13  2  0
 12 13  2  0
  9 14  1  0
 14 15  1  0
 15 16  1  0
  8 17  1  0
 16 17  1  0
 17 18  1  0
 14 19  1  0
 18 19  1  0
  3 21  1  0
 20 21  1  0
  3 22  1  0
 21 22  2  0
 22 23  1  0
 11 24  1  0
 20 24  1  0
 23 24  2  0
M  END
