x1412-x0398
     RDKit          3D

 16 17  0  0  0  0  0  0  0  0999 V2000
    6.4870   -2.0200   18.8400 C   0  0  0  0  0  0  0  0  0  0  0  0
    5.4360   -4.0200   19.6960 O   0  0  0  0  0  0  0  0  0  0  0  0
    6.1560   -3.0310   19.9090 C   0  0  0  0  0  0  0  0  0  0  0  0
    8.4060   -1.5070   25.1440 O   0  0  0  0  0  0  0  0  0  0  0  0
    8.4550   -2.6720   24.7360 C   0  0  0  0  0  0  0  0  0  0  0  0
    6.7470   -2.7900   21.1250 N   0  0  0  0  0  0  0  0  0  0  0  0
    7.7160   -1.6960   21.3770 C   0  0  0  0  0  0  0  0  0  0  0  0
    8.7820   -1.9770   22.4020 C   0  0  0  0  0  0  0  0  0  0  0  0
    8.3690   -2.9800   23.3770 N   0  0  0  0  0  0  0  0  0  0  0  0
    7.6750   -4.1920   22.9320 C   0  0  0  0  0  0  0  0  0  0  0  0
    6.4470   -3.7410   22.2000 C   0  0  0  0  0  0  0  0  0  0  0  0
    9.3940   -4.9370   25.4020 C   0  0  0  0  0  0  0  0  0  0  0  0
    8.6060   -3.8170   25.6160 C   0  0  0  0  0  0  0  0  0  0  0  0
    7.7570   -3.8740   27.1060 S   0  0  0  0  0  0  0  0  0  0  0  0
    8.4420   -5.3910   27.4760 C   0  0  0  0  0  0  0  0  0  0  0  0
    9.3020   -5.8670   26.4900 C   0  0  0  0  0  0  0  0  0  0  0  0
  1  3  1  0
  2  3  2  0
  4  5  2  0
  3  6  1  0
  6  7  1  0
  7  8  1  0
  5  9  1  0
  8  9  1  0
  9 10  1  0
  6 11  1  0
 10 11  1  0
  5 13  1  0
 12 13  2  0
 13 14  1  0
 14 15  1  0
 12 16  1  0
 15 16  2  0
M  END
