x1418-x0354
     RDKit          3D

 28 31  0  0  0  0  0  0  0  0999 V2000
   13.1280   -1.2240   22.7880 C   0  0  0  0  0  0  0  0  0  0  0  0
    7.6120   -1.9720   25.1650 O   0  0  0  0  0  0  0  0  0  0  0  0
    7.4570   -0.4000   27.4450 O   0  0  0  0  0  0  0  0  0  0  0  0
    8.7970   -1.2530   25.5570 C   0  0  0  0  0  0  0  0  0  0  0  0
    8.4660   -0.0610   26.4880 C   0  0  0  0  0  0  0  0  0  0  0  0
    5.5950    3.7860   30.8940 C   0  0  0  0  0  0  0  0  0  0  0  0
    6.2740   -2.1160   18.6820 C   0  0  0  0  0  0  0  0  0  0  0  0
    5.4460   -4.0440   19.7320 O   0  0  0  0  0  0  0  0  0  0  0  0
    5.8870   -2.8810   19.8210 C   0  0  0  0  0  0  0  0  0  0  0  0
    9.5620   -1.8420   22.7580 C   0  0  2  0  0  0  0  0  0  0  0  0
   11.7140   -0.8920   22.9390 N   0  0  0  0  0  0  0  0  0  0  0  0
   10.7980   -2.0690   22.9160 C   0  0  1  0  0  0  0  0  0  0  0  0
   10.2410   -2.4730   24.1060 C   0  0  1  0  0  0  0  0  0  0  0  0
   10.1080   -1.6100   25.1990 N   0  0  0  0  0  0  0  0  0  0  0  0
   11.2850   -0.7870   25.2850 C   0  0  0  0  0  0  0  0  0  0  0  0
   11.4420    0.0470   24.0340 C   0  0  0  0  0  0  0  0  0  0  0  0
    7.6480    1.8270   28.3060 C   0  0  0  0  0  0  0  0  0  0  0  0
    7.1800    2.9240   29.1960 C   0  0  0  0  0  0  0  0  0  0  0  0
    6.0900    2.6970   29.9890 C   0  0  0  0  0  0  0  0  0  0  0  0
    5.3920    1.3730   29.9560 C   0  0  0  0  0  0  0  0  0  0  0  0
    5.8160    0.2290   29.0850 C   0  0  0  0  0  0  0  0  0  0  0  0
    7.0260    0.6070   28.2620 C   0  0  0  0  0  0  0  0  0  0  0  0
    6.0780   -2.1370   21.0940 N   0  0  0  0  0  0  0  0  0  0  0  0
    6.2610   -2.7240   22.4930 C   0  0  0  0  0  0  0  0  0  0  0  0
    7.6360   -3.3990   22.4690 C   0  0  0  0  0  0  0  0  0  0  0  0
    8.6500   -2.5560   21.8720 N   0  0  0  0  0  0  0  0  0  0  0  0
    8.2670   -1.7300   20.7860 C   0  0  0  0  0  0  0  0  0  0  0  0
    7.0630   -1.0750   21.1030 C   0  0  0  0  0  0  0  0  0  0  0  0
  2  4  2  0
  3  5  1  0
  4  5  1  0
  7  9  1  0
  8  9  2  0
  1 11  1  0
 10 12  1  0
 12 11  1  1
 10 13  1  0
 12 13  1  0
  4 14  1  0
 13 14  1  1
 14 15  1  0
 11 16  1  0
 15 16  1  0
 17 18  2  0
  6 19  1  0
 18 19  1  0
 19 20  2  0
 20 21  1  0
  3 22  1  0
 17 22  1  0
 21 22  2  0
  9 23  1  0
 23 24  1  0
 24 25  1  0
 10 26  1  6
 25 26  1  0
 26 27  1  0
 23 28  1  0
 27 28  1  0
M  END
