x1418-x0981
     RDKit          3D

 29 30  0  0  0  0  0  0  0  0999 V2000
    1.2130   -8.7540   21.3430 C   0  0  0  0  0  0  0  0  0  0  0  0
    2.6540   -7.1230   22.6660 N   0  0  0  0  0  0  0  0  0  0  0  0
    0.2350   -6.6590   22.1710 O   0  0  0  0  0  0  0  0  0  0  0  0
    1.4320   -7.4610   22.1230 C   0  0  0  0  0  0  0  0  0  0  0  0
    2.2870   -8.5580   26.2240 N   0  0  0  0  0  0  0  0  0  0  0  0
    3.9410   -8.2350   24.7360 O   0  0  0  0  0  0  0  0  0  0  0  0
    2.8210   -6.0070   23.5970 C   0  0  1  0  0  0  0  0  0  0  0  0
    5.0420   -5.5920   22.4600 N   0  0  0  0  0  0  0  0  0  0  0  0
    4.6460   -4.7110   24.4960 O   0  0  0  0  0  0  0  0  0  0  0  0
    2.5180   -6.4130   25.0280 C   0  0  0  0  0  0  0  0  0  0  0  0
    2.9650   -7.8020   25.3200 C   0  0  0  0  0  0  0  0  0  0  0  0
    4.2470   -5.3920   23.5540 C   0  0  0  0  0  0  0  0  0  0  0  0
    6.1050   -4.6130   22.2910 C   0  0  0  0  0  0  0  0  0  0  0  0
    6.3780   -4.4470   21.0080 C   0  0  1  0  0  0  0  0  0  0  0  0
    5.5970   -5.4240   20.2730 C   0  0  0  0  0  0  0  0  0  0  0  0
    6.0210   -2.6400   19.1560 C   0  0  0  0  0  0  0  0  0  0  0  0
    5.9290   -3.1110   20.6250 C   0  0  2  0  0  0  0  0  0  0  0  0
   10.2060   -2.5040   23.5550 C   0  0  0  0  0  0  0  0  0  0  0  0
    6.5220   -2.0500   21.4610 N   0  0  0  0  0  0  0  0  0  0  0  0
    6.6420   -2.4250   22.8880 C   0  0  0  0  0  0  0  0  0  0  0  0
    7.8400   -3.0000   23.1950 C   0  0  0  0  0  0  0  0  0  0  0  0
    8.9070   -2.0260   23.0790 N   0  0  0  0  0  0  0  0  0  0  0  0
    9.0080   -1.7200   21.6430 C   0  0  0  0  0  0  0  0  0  0  0  0
    7.7370   -1.3910   20.9270 C   0  0  0  0  0  0  0  0  0  0  0  0
   12.4350   -1.2560   22.6750 C   0  0  0  0  0  0  0  0  0  0  0  0
   11.1560   -1.3770   23.4660 C   0  0  0  0  0  0  0  0  0  0  0  0
   10.8390    0.0460   24.3360 S   0  0  0  0  0  0  0  0  0  0  0  0
   12.2460    0.8110   23.7370 C   0  0  0  0  0  0  0  0  0  0  0  0
   13.0050    0.0210   22.8760 C   0  0  0  0  0  0  0  0  0  0  0  0
  1  4  1  0
  2  4  1  0
  3  4  2  0
  2  7  1  0
  7 10  1  1
  5 11  1  0
  6 11  2  0
 10 11  1  0
  7 12  1  0
  8 12  1  0
  9 12  2  0
  8 13  1  0
 13 14  1  0
 14 15  1  6
 14 17  1  0
 17 16  1  6
 17 19  1  0
 19 20  1  0
 20 21  1  0
 18 22  1  0
 21 22  1  0
 22 23  1  0
 19 24  1  0
 23 24  1  0
 18 26  1  0
 25 26  2  0
 26 27  1  0
 27 28  1  0
 25 29  1  0
 28 29  2  0
M  END
