x1418-x1226
     RDKit          3D

 15 16  0  0  0  0  0  0  0  0999 V2000
    6.6400   -2.2290   18.4470 C   0  0  0  0  0  0  0  0  0  0  0  0
    5.5530   -4.1190   19.6560 O   0  0  0  0  0  0  0  0  0  0  0  0
    6.2960   -2.8810   19.7790 C   0  0  0  0  0  0  0  0  0  0  0  0
   10.0140   -2.5730   23.5090 C   0  0  0  0  0  0  0  0  0  0  0  0
    6.6410   -2.2760   20.9700 N   0  0  0  0  0  0  0  0  0  0  0  0
    6.4640   -2.8500   22.1890 C   0  0  0  0  0  0  0  0  0  0  0  0
    7.7530   -3.2590   22.8450 C   0  0  0  0  0  0  0  0  0  0  0  0
    8.7370   -2.1510   22.9080 N   0  0  0  0  0  0  0  0  0  0  0  0
    8.9990   -1.7570   21.6130 C   0  0  0  0  0  0  0  0  0  0  0  0
    7.7560   -1.3380   20.8630 C   0  0  0  0  0  0  0  0  0  0  0  0
   12.1830   -1.2960   22.5810 C   0  0  0  0  0  0  0  0  0  0  0  0
   10.9980   -1.4420   23.4930 C   0  0  0  0  0  0  0  0  0  0  0  0
   10.8200   -0.1480   24.6230 S   0  0  0  0  0  0  0  0  0  0  0  0
   12.2060    0.6420   23.9950 C   0  0  0  0  0  0  0  0  0  0  0  0
   12.8890   -0.1050   22.8620 C   0  0  0  0  0  0  0  0  0  0  0  0
  1  3  1  0
  2  3  2  0
  3  5  1  0
  5  6  1  0
  6  7  1  0
  4  8  1  0
  7  8  1  0
  8  9  1  0
  5 10  1  0
  9 10  1  0
  4 12  1  0
 11 12  2  0
 12 13  1  0
 13 14  1  0
 11 15  1  0
 14 15  2  0
M  END
