x1418-x0770
     RDKit          3D

 17 18  0  0  0  0  0  0  0  0999 V2000
    6.0490   -2.0440   18.6670 C   0  0  0  0  0  0  0  0  0  0  0  0
    5.3080   -4.1780   19.7030 O   0  0  0  0  0  0  0  0  0  0  0  0
   13.4050   -1.7230   21.1360 Cl  0  0  0  0  0  0  0  0  0  0  0  0
    5.8980   -2.8750   19.9380 C   0  0  0  0  0  0  0  0  0  0  0  0
    9.2140   -2.2850   24.2760 C   0  0  0  0  0  0  0  0  0  0  0  0
    6.3670   -2.3910   21.1360 N   0  0  0  0  0  0  0  0  0  0  0  0
    7.3280   -1.3950   21.1710 C   0  0  0  0  0  0  0  0  0  0  0  0
    8.5350   -1.6850   22.0080 C   0  0  0  0  0  0  0  0  0  0  0  0
    8.1180   -2.2080   23.3110 N   0  0  0  0  0  0  0  0  0  0  0  0
    7.5530   -3.4380   23.0920 C   0  0  0  0  0  0  0  0  0  0  0  0
    6.2850   -3.3090   22.2880 C   0  0  0  0  0  0  0  0  0  0  0  0
   10.6390   -0.2100   24.4800 C   0  0  0  0  0  0  0  0  0  0  0  0
   11.8050    0.6000   24.0400 C   0  0  0  0  0  0  0  0  0  0  0  0
   12.6470    0.1980   23.0710 C   0  0  0  0  0  0  0  0  0  0  0  0
   12.4250   -1.1340   22.3680 C   0  0  0  0  0  0  0  0  0  0  0  0
   11.2540   -1.9710   22.7970 C   0  0  0  0  0  0  0  0  0  0  0  0
   10.3880   -1.4460   23.8690 C   0  0  0  0  0  0  0  0  0  0  0  0
  1  4  1  0
  2  4  2  0
  4  6  1  0
  6  7  1  0
  7  8  1  0
  5  9  1  0
  8  9  1  0
  9 10  1  0
  6 11  1  0
 10 11  1  0
 12 13  2  0
 13 14  1  0
  3 15  1  0
 14 15  2  0
 15 16  1  0
  5 17  1  0
 12 17  1  0
 16 17  2  0
M  END
