x1412-x1385
     RDKit          3D

 17 18  0  0  0  0  0  0  0  0999 V2000
    6.4740   -2.0280   18.8080 C   0  0  0  0  0  0  0  0  0  0  0  0
    5.4460   -4.0190   19.7100 O   0  0  0  0  0  0  0  0  0  0  0  0
    6.1420   -3.0110   19.9040 C   0  0  0  0  0  0  0  0  0  0  0  0
    8.7050   -1.4200   24.9340 O   0  0  0  0  0  0  0  0  0  0  0  0
    8.6360   -2.5920   24.5570 C   0  0  0  0  0  0  0  0  0  0  0  0
    7.0800   -6.0120   28.6910 Br  0  0  0  0  0  0  0  0  0  0  0  0
    6.7160   -2.7160   21.1140 N   0  0  0  0  0  0  0  0  0  0  0  0
    7.6930   -1.6170   21.3150 C   0  0  0  0  0  0  0  0  0  0  0  0
    8.8500   -1.9140   22.2240 C   0  0  0  0  0  0  0  0  0  0  0  0
    8.5230   -2.9290   23.2100 N   0  0  0  0  0  0  0  0  0  0  0  0
    7.7910   -4.1390   22.8140 C   0  0  0  0  0  0  0  0  0  0  0  0
    6.5030   -3.6810   22.1980 C   0  0  0  0  0  0  0  0  0  0  0  0
    9.4120   -4.8700   25.4360 C   0  0  0  0  0  0  0  0  0  0  0  0
    8.6200   -3.7290   25.4420 C   0  0  0  0  0  0  0  0  0  0  0  0
    7.4660   -3.7040   26.6770 S   0  0  0  0  0  0  0  0  0  0  0  0
    7.9700   -5.2160   27.2230 C   0  0  0  0  0  0  0  0  0  0  0  0
    9.0320   -5.7630   26.4990 C   0  0  0  0  0  0  0  0  0  0  0  0
  1  3  1  0
  2  3  2  0
  4  5  2  0
  3  7  1  0
  7  8  1  0
  8  9  1  0
  5 10  1  0
  9 10  1  0
 10 11  1  0
  7 12  1  0
 11 12  1  0
  5 14  1  0
 13 14  2  0
 14 15  1  0
  6 16  1  0
 15 16  1  0
 13 17  1  0
 16 17  2  0
M  END
