x1458-x1187
     RDKit          3D

 16 16  0  0  0  0  0  0  0  0999 V2000
    7.3870   -3.4170   26.3500 N   0  0  0  0  0  0  0  0  0  0  0  0
    9.0390   -5.0890   27.0970 C   0  0  0  0  0  0  0  0  0  0  0  0
    5.1370   -3.5560   26.0090 O   0  0  0  0  0  0  0  0  0  0  0  0
    7.6660   -4.4740   27.3370 C   0  0  0  0  0  0  0  0  0  0  0  0
    5.3350   -4.7720   19.7090 O   0  0  0  0  0  0  0  0  0  0  0  0
    6.6270   -5.5380   27.3350 C   0  0  0  0  0  0  0  0  0  0  0  0
    7.9390   -2.0980   26.6640 C   0  0  0  0  0  0  0  0  0  0  0  0
    6.2770   -3.5720   25.5390 C   0  0  0  0  0  0  0  0  0  0  0  0
    5.9430   -3.8690   20.2670 C   0  0  0  0  0  0  0  0  0  0  0  0
    6.1100   -2.6240   19.6440 C   0  0  0  0  0  0  0  0  0  0  0  0
    6.4920   -4.0600   21.5100 N   0  0  0  0  0  0  0  0  0  0  0  0
    7.5540   -3.1730   22.0240 C   0  0  0  0  0  0  0  0  0  0  0  0
    7.5850   -3.0940   23.4190 C   0  0  0  0  0  0  0  0  0  0  0  0
    6.4070   -3.7150   24.1490 C   0  0  0  0  0  0  0  0  0  0  0  0
    6.1250   -5.1480   23.7510 C   0  0  0  0  0  0  0  0  0  0  0  0
    6.0920   -5.2930   22.2180 C   0  0  0  0  0  0  0  0  0  0  0  0
  1  4  1  0
  2  4  1  0
  4  6  1  0
  1  7  1  0
  1  8  1  0
  3  8  2  0
  5  9  2  0
  9 10  1  0
  9 11  1  0
 11 12  1  0
 12 13  1  0
  8 14  1  0
 13 14  1  0
 14 15  1  0
 11 16  1  0
 15 16  1  0
M  END
