
     RDKit          3D

 11 11  0  0  0  0  0  0  0  0999 V2000
    7.3930   -3.1130   21.3650 N   0  0  0  0  0  0  0  0  0  0  0  0
    8.4390   -2.5600   19.3240 C   0  0  0  0  0  0  0  0  0  0  0  0
    6.2560   -3.5430   19.4370 O   0  0  0  0  0  0  0  0  0  0  0  0
    6.3500   -5.8660   21.7700 Cl  0  0  0  0  0  0  0  0  0  0  0  0
    7.2400   -3.1340   20.0300 C   0  0  0  0  0  0  0  0  0  0  0  0
    4.9130   -4.6370   23.5520 N   0  0  0  0  0  0  0  0  0  0  0  0
    6.3960   -3.2170   22.3570 C   0  0  0  0  0  0  0  0  0  0  0  0
    5.9620   -2.1140   23.0890 C   0  0  0  0  0  0  0  0  0  0  0  0
    4.9930   -2.3010   24.0510 C   0  0  0  0  0  0  0  0  0  0  0  0
    4.5010   -3.5730   24.2470 C   0  0  0  0  0  0  0  0  0  0  0  0
    5.8400   -4.4570   22.6350 C   0  0  0  0  0  0  0  0  0  0  0  0
  1  5  1  0
  1  7  1  0
  2  5  1  0
  3  5  2  0
  4 11  1  0
  6 10  2  0
  6 11  1  0
  7  8  1  0
  7 11  2  0
  8  9  2  0
  9 10  1  0
M  END
